function mpc = case213

%   MATPOWER

%% MATPOWER Case Format : Version 2
mpc.version = '2';

%%-----  Power Flow Data  -----%%
%% system MVA base
mpc.baseMVA = 100;

%% bus data
%	bus_i	type	Pd	Qd	Gs	Bs	area	Vm	Va	baseKV	zone	Vmax	Vmin
mpc.bus = [
1	3	207.50777	0	0	0	1	1	0	788	1	1.1	0.9
2	1	207.50777	0	0	0	1	1	0	788	1	1.1	0.9
3	1	207.50777	0	0	0	1	1	0	788	1	1.1	0.9
4	1	207.50777	0	0	0	1	1	0	788	1	1.1	0.9
5	1	207.50777	0	0	0	1	1	0	788	1	1.1	0.9
6	2	0.00000	0	0	0	1	1	0	788	1	1.1	0.9
7	1	124.50466	0	0	0	1	1	0	788	1	1.1	0.9
8	2	0.00000	0	0	0	1	1	0	788	1	1.1	0.9
9	1	103.75388	0	0	0	1	1	0	345	1	1.1	0.9
10	1	2488.36398	0	0	0	1	1	0	345	1	1.1	0.9
11	2	0.00000	0	0	0	1	1	0	345	1	1.1	0.9
12	1	124.50466	0	0	0	1	1	0	788	1	1.1	0.9
13	2	0.00000	0	0	0	1	1	0	788	1	1.1	0.9
14	2	0.00000	0	0	0	1	1	0	788	1	1.1	0.9
15	1	0.00000	0	0	0	1	1	0	345	1	1.1	0.9
16	1	0.00000	0	0	0	1	1	0	345	1	1.1	0.9
17	2	0.00000	0	0	0	1	1	0	788	1	1.1	0.9
18	1	79.54464	0	0	0	1	1	0	788	1	1.1	0.9
19	2	0.00000	0	0	0	1	1	0	788	1	1.1	0.9
20	2	489.37249	0	0	0	1	1	0	345	1	1.1	0.9
21	1	103.75388	0	0	0	1	1	0	345	1	1.1	0.9
22	2	478.99710	0	0	0	1	1	0	345	1	1.1	0.9
23	2	0.00000	0	0	0	1	1	0	788	1	1.1	0.9
24	1	2382.88086	0	0	0	1	1	0	345	1	1.1	0.9
25	1	389.07706	0	0	0	1	1	0	345	1	1.1	0.9
26	2	864.61570	0	0	0	1	1	0	788	1	1.1	0.9
27	2	1417.96974	0	0	0	1	1	0	788	1	1.1	0.9
28	2	62.25233	0	0	0	1	1	0	788	1	1.1	0.9
29	2	0.00000	0	0	0	1	1	0	788	1	1.1	0.9
30	2	0.00000	0	0	0	1	1	0	788	1	1.1	0.9
31	1	145.25544	0	0	0	1	1	0	788	1	1.1	0.9
32	1	62.25233	0	0	0	1	1	0	788	1	1.1	0.9
33	2	1462.92976	0	0	0	1	1	0	788	1	1.1	0.9
34	1	1569.66277	0	0	0	1	1	0	788	1	1.1	0.9
35	1	0.00000	0	0	0	1	1	0	788	1	1.1	0.9
36	1	4604.94321	0	0	0	1	1	0	788	1	1.1	0.9
37	2	0.00000	0	0	0	1	1	0	345	1	1.1	0.9
38	2	484.18479	0	0	0	1	1	0	345	1	1.1	0.9
39	2	0.00000	0	0	0	1	1	0	345	1	1.1	0.9
40	2	4572.08781	0	0	0	1	1	0	345	1	1.1	0.9
41	2	1390.30204	0	0	0	1	1	0	345	1	1.1	0.9
												
42	1	55.25524	0	0	0	1	1	0	788	2	1.1	0.9
43	1	55.25524	0	0	0	1	1	0	788	2	1.1	0.9
44	2	1964.63067	0	0	0	1	1	0	788	2	1.1	0.9
45	1	2072.07141	0	0	0	1	1	0	788	2	1.1	0.9
46	2	0.00000	0	0	0	1	1	0	788	2	1.1	0.9
47	1	110.51048	0	0	0	1	1	0	788	2	1.1	0.9
48	1	223.16977	0	0	0	1	1	0	345	2	1.1	0.9
49	2	2072.07141	0	0	0	1	1	0	345	2	1.1	0.9
50	2	0.00000	0	0	0	1	1	0	788	2	1.1	0.9
51	2	3752.75156	0	0	0	1	1	0	788	2	1.1	0.9
52	1	0.00000	0	0	0	1	1	0	345	2	1.1	0.9
53	2	0.00000	0	0	0	1	1	0	345	2	1.1	0.9
54	2	987.68737	0	0	0	1	1	0	345	2	1.1	0.9
55	2	0.00000	0	0	0	1	1	0	345	2	1.1	0.9
56	2	0.00000	0	0	0	1	1	0	345	2	1.1	0.9
57	2	0.00000	0	0	0	1	1	0	788	2	1.1	0.9
58	2	0.00000	0	0	0	1	1	0	788	2	1.1	0.9
59	2	429.76296	0	0	0	1	1	0	788	2	1.1	0.9
60	2	0.00000	0	0	0	1	1	0	345	2	1.1	0.9
61	2	613.94709	0	0	0	1	1	0	345	2	1.1	0.9
62	2	0.00000	0	0	0	1	1	0	345	2	1.1	0.9
63	2	0.00000	0	0	0	1	1	0	345	2	1.1	0.9
64	2	0.00000	0	0	0	1	1	0	345	2	1.1	0.9
65	2	0.00000	0	0	0	1	1	0	788	2	1.1	0.9
66	1	0.00000	0	0	0	1	1	0	788	2	1.1	0.9
67	2	18.41841	0	0	0	1	1	0	788	2	1.1	0.9
68	2	0.00000	0	0	0	1	1	0	345	2	1.1	0.9
69	2	0.00000	0	0	0	1	1	0	345	2	1.1	0.9
70	2	0.00000	0	0	0	1	1	0	345	2	1.1	0.9
71	2	0.00000	0	0	0	1	1	0	345	2	1.1	0.9
72	2	0.00000	0	0	0	1	1	0	788	2	1.1	0.9
73	2	0.00000	0	0	0	1	1	0	345	2	1.1	0.9
74	2	0.00000	0	0	0	1	1	0	345	2	1.1	0.9
75	2	0.00000	0	0	0	1	1	0	345	2	1.1	0.9
76	2	0.00000	0	0	0	1	1	0	345	2	1.1	0.9
77	2	0.00000	0	0	0	1	1	0	345	2	1.1	0.9
78	2	0.00000	0	0	0	1	1	0	345	2	1.1	0.9
79	2	0.00000	0	0	0	1	1	0	345	2	1.1	0.9
80	2	419.01889	0	0	0	1	1	0	345	2	1.1	0.9
81	2	0.00000	0	0	0	1	1	0	788	2	1.1	0.9
82	2	0.00000	0	0	0	1	1	0	345	2	1.1	0.9
83	2	0.00000	0	0	0	1	1	0	788	2	1.1	0.9
84	2	613.94709	0	0	0	1	1	0	345	2	1.1	0.9
85	2	2309.97591	0	0	0	1	1	0	345	2	1.1	0.9
86	1	1565.56507	0	0	0	1	1	0	345	2	1.1	0.9
87	1	1818.81824	0	0	0	1	1	0	345	2	1.1	0.9
88	2	415.94915	0	0	0	1	1	0	345	2	1.1	0.9
89	2	0.00000	0	0	0	1	1	0	345	2	1.1	0.9
90	1	1375.24147	0	0	0	1	1	0	345	2	1.1	0.9
91	1	85.95259	0	0	0	1	1	0	345	2	1.1	0.9
												
92	2	1204.97352	0	0	0	1	1	0	788	3	1.1	0.9
93	2	926.90270	0	0	0	1	1	0	788	3	1.1	0.9
94	1	0.00000	0	0	0	1	1	0	788	3	1.1	0.9
95	1	0.00000	0	0	0	1	1	0	345	3	1.1	0.9
96	2	0.00000	0	0	0	1	1	0	345	3	1.1	0.9
97	2	0.00000	0	0	0	1	1	0	788	3	1.1	0.9
98	2	0.00000	0	0	0	1	1	0	788	3	1.1	0.9
99	1	2169.53164	0	0	0	1	1	0	788	3	1.1	0.9
100	2	2078.77242	0	0	0	1	1	0	788	3	1.1	0.9
101	2	0.00000	0	0	0	1	1	0	345	3	1.1	0.9
102	2	0.00000	0	0	0	1	1	0	345	3	1.1	0.9
103	2	0.00000	0	0	0	1	1	0	345	3	1.1	0.9
104	2	0.00000	0	0	0	1	1	0	345	3	1.1	0.9
105	2	0.00000	0	0	0	1	1	0	345	3	1.1	0.9
106	2	0.00000	0	0	0	1	1	0	788	3	1.1	0.9
107	2	0.00000	0	0	0	1	1	0	788	3	1.1	0.9
108	1	86.89713	0	0	0	1	1	0	345	3	1.1	0.9
109	2	0.00000	0	0	0	1	1	0	115	3	1.1	0.9
110	2	0.00000	0	0	0	1	1	0	345	3	1.1	0.9
111	1	0.00000	0	0	0	1	1	0	345	3	1.1	0.9
112	2	0.00000	0	0	0	1	1	0	345	3	1.1	0.9
113	2	0.00000	0	0	0	1	1	0	788	3	1.1	0.9
114	2	0.00000	0	0	0	1	1	0	115	3	1.1	0.9
115	2	0.00000	0	0	0	1	1	0	115	3	1.1	0.9
116	2	0.00000	0	0	0	1	1	0	345	3	1.1	0.9
117	2	0.00000	0	0	0	1	1	0	115	3	1.1	0.9
118	2	0.00000	0	0	0	1	1	0	115	3	1.1	0.9
119	2	0.00000	0	0	0	1	1	0	345	3	1.1	0.9
120	2	0.00000	0	0	0	1	1	0	345	3	1.1	0.9
121	2	0.00000	0	0	0	1	1	0	345	3	1.1	0.9
122	2	0.00000	0	0	0	1	1	0	115	3	1.1	0.9
123	2	0.00000	0	0	0	1	1	0	345	3	1.1	0.9
124	2	0.00000	0	0	0	1	1	0	345	3	1.1	0.9
125	2	0.00000	0	0	0	1	1	0	788	3	1.1	0.9
126	1	0.00000	0	0	0	1	1	0	788	3	1.1	0.9
127	1	0.00000	0	0	0	1	1	0	788	3	1.1	0.9
128	2	62.75904	0	0	0	1	1	0	788	3	1.1	0.9
129	2	1484.00985	0	0	0	1	1	0	345	3	1.1	0.9
130	2	0.00000	0	0	0	1	1	0	345	3	1.1	0.9
131	1	0.00000	0	0	0	1	1	0	345	3	1.1	0.9
132	2	816.83301	0	0	0	1	1	0	115	3	1.1	0.9
133	2	231.72568	0	0	0	1	1	0	115	3	1.1	0.9
134	2	147.72512	0	0	0	1	1	0	115	3	1.1	0.9
135	1	1179.86990	0	0	0	1	1	0	115	3	1.1	0.9
136	2	0.00000	0	0	0	1	1	0	345	3	1.1	0.9
137	2	0.00000	0	0	0	1	1	0	345	3	1.1	0.9
												
138	1	97.90678	0	0	0	1	1	0	525	4	1.1	0.9
139	1	97.90678	0	0	0	1	1	0	525	4	1.1	0.9
140	1	97.90678	0	0	0	1	1	0	525	4	1.1	0.9
141	1	97.90678	0	0	0	1	1	0	525	4	1.1	0.9
142	2	0.00000	0	0	0	1	1	0	788	4	1.1	0.9
143	2	1231.99369	0	0	0	1	1	0	788	4	1.1	0.9
144	1	1373.95852	0	0	0	1	1	0	345	4	1.1	0.9
145	1	195.81357	0	0	0	1	1	0	788	4	1.1	0.9
146	1	117.48814	0	0	0	1	1	0	788	4	1.1	0.9
147	2	0.00000	0	0	0	1	1	0	788	4	1.1	0.9
148	1	117.48814	0	0	0	1	1	0	788	4	1.1	0.9
149	1	117.48814	0	0	0	1	1	0	788	4	1.1	0.9
150	1	117.48814	0	0	0	1	1	0	788	4	1.1	0.9
151	1	195.81357	0	0	0	1	1	0	788	4	1.1	0.9
152	1	117.48814	0	0	0	1	1	0	788	4	1.1	0.9
153	1	195.81357	0	0	0	1	1	0	788	4	1.1	0.9
154	1	848.52545	0	0	0	1	1	0	788	4	1.1	0.9
155	2	463.42544	0	0	0	1	1	0	788	4	1.1	0.9
156	2	1620.35726	0	0	0	1	1	0	788	4	1.1	0.9
157	1	117.48814	0	0	0	1	1	0	788	4	1.1	0.9
158	2	3981.54252	0	0	0	1	1	0	788	4	1.1	0.9
159	2	0.00000	0	0	0	1	1	0	788	4	1.1	0.9
160	1	234.97628	0	0	0	1	1	0	788	4	1.1	0.9
161	2	818.66389	0	0	0	1	1	0	788	4	1.1	0.9
162	2	0.00000	0	0	0	1	1	0	525	4	1.1	0.9
163	2	2842.56027	0	0	0	1	1	0	345	4	1.1	0.9
												
164	2	0.00000	0	0	0	1	1	0	788	5	1.1	0.9
165	2	0.00000	0	0	0	1	1	0	230	5	1.1	0.9
166	2	0.00000	0	0	0	1	1	0	115	5	1.1	0.9
167	2	0.00000	0	0	0	1	1	0	115	5	1.1	0.9
168	2	0.00000	0	0	0	1	1	0	115	5	1.1	0.9
169	2	0.00000	0	0	0	1	1	0	230	5	1.1	0.9
170	2	0.00000	0	0	0	1	1	0	230	5	1.1	0.9
171	2	0.00000	0	0	0	1	1	0	788	5	1.1	0.9
172	1	0.00000	0	0	0	1	1	0	525	5	1.1	0.9
173	1	0.00000	0	0	0	1	1	0	525	5	1.1	0.9
174	1	0.00000	0	0	0	1	1	0	525	5	1.1	0.9
175	1	0.00000	0	0	0	1	1	0	525	5	1.1	0.9
176	1	0.00000	0	0	0	1	1	0	788	5	1.1	0.9
177	2	0.00000	0	0	0	1	1	0	788	5	1.1	0.9
178	2	0.00000	0	0	0	1	1	0	788	5	1.1	0.9
179	1	99.17805	0	0	0	1	1	0	788	5	1.1	0.9
180	1	0.00000	0	0	0	1	1	0	788	5	1.1	0.9
181	1	0.00000	0	0	0	1	1	0	788	5	1.1	0.9
182	1	4656.98148	0	0	0	1	1	0	788	5	1.1	0.9
183	1	274.64690	0	0	0	1	1	0	788	5	1.1	0.9
184	2	0.00000	0	0	0	1	1	0	788	5	1.1	0.9
185	1	274.64690	0	0	0	1	1	0	788	5	1.1	0.9
186	1	274.64690	0	0	0	1	1	0	788	5	1.1	0.9
187	1	274.64690	0	0	0	1	1	0	788	5	1.1	0.9
188	1	274.64690	0	0	0	1	1	0	788	5	1.1	0.9
189	1	274.64690	0	0	0	1	1	0	788	5	1.1	0.9
190	1	274.64690	0	0	0	1	1	0	788	5	1.1	0.9
191	2	0.00000	0	0	0	1	1	0	788	5	1.1	0.9
192	2	0.00000	0	0	0	1	1	0	788	5	1.1	0.9
193	2	0.00000	0	0	0	1	1	0	788	5	1.1	0.9
194	1	2879.22262	0	0	0	1	1	0	788	5	1.1	0.9
195	2	1277.87099	0	0	0	1	1	0	788	5	1.1	0.9
196	2	2554.02543	0	0	0	1	1	0	788	5	1.1	0.9
197	1	4386.72130	0	0	0	1	1	0	788	5	1.1	0.9
198	1	4884.51881	0	0	0	1	1	0	788	5	1.1	0.9
199	1	1453.33984	0	0	0	1	1	0	788	5	1.1	0.9
200	1	2214.34062	0	0	0	1	1	0	788	5	1.1	0.9
201	1	414.44980	0	0	0	1	1	0	788	5	1.1	0.9
202	2	1570.06477	0	0	0	1	1	0	788	5	1.1	0.9
203	2	2209.57245	0	0	0	1	1	0	788	5	1.1	0.9
204	1	886.88061	0	0	0	1	1	0	788	5	1.1	0.9
205	1	699.01450	0	0	0	1	1	0	788	5	1.1	0.9
206	1	667.54455	0	0	0	1	1	0	788	5	1.1	0.9
207	1	2670.17818	0	0	0	1	1	0	788	5	1.1	0.9
208	2	3038.28132	0	0	0	1	1	0	788	5	1.1	0.9
209	1	3108.46886	0	0	0	1	1	0	788	5	1.1	0.9
210	2	476.81753	0	0	0	1	1	0	788	5	1.1	0.9
211	2	0.00000	0	0	0	1	1	0	230	5	1.1	0.9
212	2	0.00000	0	0	0	1	1	0	115	5	1.1	0.9
213	2	0.00000	0	0	0	1	1	0	525	5	1.1	0.9
];

%% generator data
%	bus	Pg	Qg	Qmax	Qmin	Vg	mBase	status	Pmax	Pmin	Pc1	Pc2 Qc1min	Qc1max	Qc2min	Qc2max	ramp_agc	ramp_10	ramp_30	ramp_q	apf type(1-hydro,2-coal fired Thermal, 5-gas fired thermal)	Ramp_up(MW/min)	Ramp_down	min_up_time(h)	min_down_time	FOR	cost_start(M$)	cost_const(£¤M$/(MW*y))	cost_var($/MWh)  area	num
mpc.gen = [
1	0	0	0	0	1	100	1	1000	500	0	0	0	0	0	0	0	0	0	0	0	2	15	8	12	12	0.31773	0.14286	0.03000	35.71429	1	4
2	0	0	0	0	1	100	1	1000	500	0	0	0	0	0	0	0	0	0	0	0	2	15	8	12	12	0.32988	0.14286	0.03000	35.71429	1	4
3	0	0	0	0	1	100	1	1000	500	0	0	0	0	0	0	0	0	0	0	0	2	15	8	12	12	0.33321	0.14286	0.03000	35.71429	1	4
4	0	0	0	0	1	100	1	1000	500	0	0	0	0	0	0	0	0	0	0	0	2	15	8	12	12	0.33410	0.14286	0.03000	35.71429	1	2
5	0	0	0	0	1	100	1	1000	500	0	0	0	0	0	0	0	0	0	0	0	2	15	8	12	12	0.33280	0.14286	0.03000	35.71429	1	2
7	0	0	0	0	1	100	1	500	250	0	0	0	0	0	0	0	0	0	0	0	2	10	10	10	10	0.25603	0.07143	0.02143	35.71429	1	3
9	0	0	0	0	1	100	1	330	165	0	0	0	0	0	0	0	0	0	0	0	2	6.6	6.6	8	8	0.14494	0.04714	0.01286	57.14286	1	2
10	0	0	0	0	1	100	1	300	165	0	0	0	0	0	0	0	0	0	0	0	2	6	6	8	8	0.14223	0.04286	0.01286	60.00000	1	6
12	0	0	0	0	1	100	1	600	240	0	0	0	0	0	0	0	0	0	0	0	5	24	24	3	3	0.36078	0.02571	0.02529	54.28571	1	1
15	0	0	0	0	1	100	1	700	350	0	0	0	0	0	0	0	0	0	0	0	2	10.5	6	10	10	0.25976	0.10000	0.03000	35.71429	1	2
16	0	0	0	0	1	100	1	330	165	0	0	0	0	0	0	0	0	0	0	0	2	6.6	6.6	8	8	0.14605	0.04714	0.01286	57.14286	1	3
18	0	0	0	0	1	100	1	600	240	0	0	0	0	0	0	0	0	0	0	0	5	24	24	3	3	0.37931	0.02571	0.02529	54.28571	1	1
21	0	0	0	0	1	100	1	330	165	0	0	0	0	0	0	0	0	0	0	0	2	6.6	6.6	8	8	0.13499	0.04714	0.01286	57.14286	1	3
24	0	0	0	0	1	100	1	300	165	0	0	0	0	0	0	0	0	0	0	0	2	6	6	8	8	0.14517	0.04286	0.01286	60.00000	1	5
25	0	0	0	0	1	100	1	600	240	0	0	0	0	0	0	0	0	0	0	0	5	24	24	3	3	0.37741	0.02571	0.02529	54.28571	1	4
28	0	0	0	0	1	100	1	500	0	0	0	0	0	0	0	0	0	0	0	0	1	62.5	62.5	0	0	0.00515	0.00000	0.03857	0.00000	1	2
28	0	0	0	0	1	100	1	600	240	0	0	0	0	0	0	0	0	0	0	0	5	24	24	3	3	0.36287	0.02571	0.02529	54.28571	1	2
31	0	0	0	0	1	100	1	1000	500	0	0	0	0	0	0	0	0	0	0	0	2	15	8	12	12	0.32329	0.14286	0.03000	35.71429	1	8
32	0	0	0	0	1	100	1	600	300	0	0	0	0	0	0	0	0	0	0	0	2	12	12	10	10	0.26316	0.08571	0.02143	35.71429	1	2
34	0	0	0	0	1	100	1	500	0	0	0	0	0	0	0	0	0	0	0	0	1	62.5	62.5	0	0	0.00513	0.00000	0.03857	0.00000	1	2
35	0	0	0	0	1	100	1	600	240	0	0	0	0	0	0	0	0	0	0	0	5	24	24	3	3	0.38093	0.02571	0.02529	54.28571	1	2
36	0	0	0	0	1	100	1	500	0	0	0	0	0	0	0	0	0	0	0	0	1	62.5	62.5	0	0	0.00520	0.00000	0.03857	0.00000	1	4
42	0	0	0	0	1	100	1	600	300	0	0	0	0	0	0	0	0	0	0	0	2	12	12	10	10	0.25603	0.08571	0.02143	35.71429	2	2
43	0	0	0	0	1	100	1	600	300	0	0	0	0	0	0	0	0	0	0	0	2	12	12	10	10	0.26223	0.08571	0.02143	35.71429	2	2
44	0	0	0	0	1	100	1	500	0	0	0	0	0	0	0	0	0	0	0	0	1	62.5	62.5	0	0	0.00517	0.00000	0.03857	0.00000	2	3
44	0	0	0	0	1	100	1	300	165	0	0	0	0	0	0	0	0	0	0	0	2	6	6	8	8	0.13656	0.04286	0.01286	60.00000	2	4
45	0	0	0	0	1	100	1	300	165	0	0	0	0	0	0	0	0	0	0	0	2	6	6	8	8	0.14480	0.04286	0.01286	60.00000	2	4
47	0	0	0	0	1	100	1	600	240	0	0	0	0	0	0	0	0	0	0	0	5	24	24	3	3	0.37068	0.02571	0.02529	54.28571	2	2
48	0	0	0	0	1	100	1	330	165	0	0	0	0	0	0	0	0	0	0	0	2	6.6	6.6	8	8	0.13670	0.04714	0.01286	57.14286	2	7
52	0	0	0	0	1	100	1	300	165	0	0	0	0	0	0	0	0	0	0	0	2	6	6	8	8	0.14020	0.04286	0.01000	60.00000	2	1
53	0	0	0	0	1	100	1	500	0	0	0	0	0	0	0	0	0	0	0	0	1	62.5	62.5	0	0	0.00520	0.00000	0.03857	0.00000	2	5
53	0	0	0	0	1	100	1	300	150	0	0	0	0	0	0	0	0	0	0	0	2	6	6	8	8	0.13805	0.04286	0.01286	60.00000	2	2
59	0	0	0	0	1	100	1	500	0	0	0	0	0	0	0	0	0	0	0	0	1	62.5	62.5	0	0	0.00487	0.00000	0.03857	0.00000	2	4
59	0	0	0	0	1	100	1	300	165	0	0	0	0	0	0	0	0	0	0	0	2	6	6	8	8	0.13549	0.04286	0.01286	60.00000	2	3
66	0	0	0	0	1	100	1	1000	500	0	0	0	0	0	0	0	0	0	0	0	2	15	8	12	12	0.32557	0.14286	0.03000	35.71429	2	4
86	0	0	0	0	1	100	1	350	175	0	0	0	0	0	0	0	0	0	0	0	2	7	7	8	8	0.14125	0.05000	0.01286	57.14286	2	6
87	0	0	0	0	1	100	1	300	165	0	0	0	0	0	0	0	0	0	0	0	2	6	6	8	8	0.13736	0.04286	0.01286	60.00000	2	4
88	0	0	0	0	1	100	1	500	0	0	0	0	0	0	0	0	0	0	0	0	1	62.5	62.5	0	0	0.00532	0.00000	0.03857	0.00000	2	4
88	0	0	0	0	1	100	1	330	165	0	0	0	0	0	0	0	0	0	0	0	2	6.6	6.6	8	8	0.14336	0.04714	0.01286	57.14286	2	3
90	0	0	0	0	1	100	1	500	0	0	0	0	0	0	0	0	0	0	0	0	1	62.5	62.5	0	0	0.00456	0.00000	0.03857	0.00000	2	3
91	0	0	0	0	1	100	1	300	165	0	0	0	0	0	0	0	0	0	0	0	2	6	6	8	8	0.13576	0.04286	0.01286	60.00000	2	6
94	0	0	0	0	1	100	1	500	0	0	0	0	0	0	0	0	0	0	0	0	1	62.5	62.5	0	0	0.00521	0.00000	0.03857	0.00000	3	4
95	0	0	0	0	1	100	1	500	0	0	0	0	0	0	0	0	0	0	0	0	1	62.5	62.5	0	0	0.00516	0.00000	0.03857	0.00000	3	2
98	0	0	0	0	1	100	1	600	0	0	0	0	0	0	0	0	0	0	0	0	1	75	75	0	0	0.00488	0.00000	0.03857	0.00000	3	5
98	0	0	0	0	1	100	1	600	240	0	0	0	0	0	0	0	0	0	0	0	5	24	24	3	3	0.35979	0.02571	0.02529	54.28571	3	3
99	0	0	0	0	1	100	1	500	0	0	0	0	0	0	0	0	0	0	0	0	1	62.5	62.5	0	0	0.00518	0.00000	0.03857	0.00000	3	4
108	0	0	0	0	1	100	1	500	0	0	0	0	0	0	0	0	0	0	0	0	1	62.5	62.5	0	0	0.00458	0.00000	0.03857	0.00000	3	6
111	0	0	0	0	1	100	1	600	0	0	0	0	0	0	0	0	0	0	0	0	1	75	75	0	0	0.00489	0.00000	0.03857	0.00000	3	2
126	0	0	0	0	1	100	1	600	300	0	0	0	0	0	0	0	0	0	0	0	2	12	12	10	10	0.25014	0.08571	0.02143	35.71429	3	1
127	0	0	0	0	1	100	1	600	240	0	0	0	0	0	0	0	0	0	0	0	5	24	24	3	3	0.36172	0.02571	0.02529	54.28571	3	1
129	0	0	0	0	1	100	1	500	0	0	0	0	0	0	0	0	0	0	0	0	1	62.5	62.5	0	0	0.00472	0.00000	0.03857	0.00000	3	5
129	0	0	0	0	1	100	1	350	175	0	0	0	0	0	0	0	0	0	0	0	2	7	7	8	8	0.14346	0.05000	0.01286	57.14286	3	1
131	0	0	0	0	1	100	1	400	200	0	0	0	0	0	0	0	0	0	0	0	2	8	8	8	8	0.13511	0.05714	0.01286	57.14286	3	1
135	0	0	0	0	1	100	1	600	0	0	0	0	0	0	0	0	0	0	0	0	1	75	75	0	0	0.00510	0.00000	0.03857	0.00000	3	3
138	0	0	0	0	1	100	1	1000	500	0	0	0	0	0	0	0	0	0	0	0	2	15	8	12	12	0.31870	0.14286	0.03000	35.71429	4	2
139	0	0	0	0	1	100	1	1000	500	0	0	0	0	0	0	0	0	0	0	0	2	15	8	12	12	0.32038	0.14286	0.03000	35.71429	4	1
140	0	0	0	0	1	100	1	1000	500	0	0	0	0	0	0	0	0	0	0	0	2	15	8	12	12	0.32389	0.14286	0.03000	35.71429	4	2
141	0	0	0	0	1	100	1	1000	500	0	0	0	0	0	0	0	0	0	0	0	2	15	8	12	12	0.32123	0.14286	0.03000	35.71429	4	2
144	0	0	0	0	1	100	1	600	240	0	0	0	0	0	0	0	0	0	0	0	5	24	24	3	3	0.38559	0.02571	0.02529	54.28571	4	3
145	0	0	0	0	1	100	1	1000	500	0	0	0	0	0	0	0	0	0	0	0	2	15	8	12	12	0.32865	0.14286	0.03000	35.71429	4	2
146	0	0	0	0	1	100	1	600	300	0	0	0	0	0	0	0	0	0	0	0	2	12	12	10	10	0.25272	0.08571	0.02143	35.71429	4	2
148	0	0	0	0	1	100	1	600	240	0	0	0	0	0	0	0	0	0	0	0	5	24	24	3	3	0.38672	0.02571	0.02529	54.28571	4	2
149	0	0	0	0	1	100	1	600	300	0	0	0	0	0	0	0	0	0	0	0	2	12	12	10	10	0.25915	0.08571	0.02143	35.71429	4	2
150	0	0	0	0	1	100	1	600	300	0	0	0	0	0	0	0	0	0	0	0	2	12	12	10	10	0.25160	0.08571	0.02143	35.71429	4	2
151	0	0	0	0	1	100	1	1000	500	0	0	0	0	0	0	0	0	0	0	0	2	15	8	12	12	0.33926	0.14286	0.03000	35.71429	4	2
152	0	0	0	0	1	100	1	600	300	0	0	0	0	0	0	0	0	0	0	0	2	12	12	10	10	0.25368	0.08571	0.02143	35.71429	4	2
153	0	0	0	0	1	100	1	1000	500	0	0	0	0	0	0	0	0	0	0	0	2	15	8	12	12	0.31760	0.14286	0.03000	35.71429	4	2
154	0	0	0	0	1	100	1	600	300	0	0	0	0	0	0	0	0	0	0	0	2	12	12	10	10	0.25598	0.08571	0.02143	35.71429	4	2
157	0	0	0	0	1	100	1	600	240	0	0	0	0	0	0	0	0	0	0	0	5	24	24	3	3	0.36895	0.02571	0.02529	54.28571	4	2
158	0	0	0	0	1	100	1	400	0	0	0	0	0	0	0	0	0	0	0	0	1	50	50	0	0	0.00460	0.00000	0.03714	0.00000	4	1
158	0	0	0	0	1	100	1	300	165	0	0	0	0	0	0	0	0	0	0	0	2	6	6	8	8	0.13591	0.04286	0.01286	60.00000	4	5
160	0	0	0	0	1	100	1	600	300	0	0	0	0	0	0	0	0	0	0	0	2	12	12	10	10	0.26553	0.08571	0.02143	35.71429	4	3
172	0	0	0	0	1	100	1	600	300	0	0	0	0	0	0	0	0	0	0	0	2	12	12	10	10	0.26226	0.08571	0.02143	35.71429	5	2
173	0	0	0	0	1	100	1	600	300	0	0	0	0	0	0	0	0	0	0	0	2	12	12	10	10	0.25914	0.08571	0.02143	35.71429	5	7
174	0	0	0	0	1	100	1	600	240	0	0	0	0	0	0	0	0	0	0	0	5	24	24	3	3	0.37516	0.02571	0.02529	54.28571	5	2
175	0	0	0	0	1	100	1	600	300	0	0	0	0	0	0	0	0	0	0	0	2	12	12	10	10	0.25432	0.08571	0.02143	35.71429	5	3
176	0	0	0	0	1	100	1	300	165	0	0	0	0	0	0	0	0	0	0	0	2	6	6	8	8	0.13952	0.04286	0.01286	60.00000	5	2
179	0	0	0	0	1	100	1	600	300	0	0	0	0	0	0	0	0	0	0	0	2	12	12	10	10	0.25963	0.08571	0.02143	35.71429	5	3
180	0	0	0	0	1	100	1	600	240	0	0	0	0	0	0	0	0	0	0	0	5	24	24	3	3	0.37027	0.02571	0.02529	54.28571	5	2
181	0	0	0	0	1	100	1	600	300	0	0	0	0	0	0	0	0	0	0	0	2	12	12	10	10	0.25060	0.08571	0.02143	35.71429	5	2
182	0	0	0	0	1	100	1	330	165	0	0	0	0	0	0	0	0	0	0	0	2	6.6	6.6	8	8	0.13807	0.04714	0.01286	57.14286	5	10
183	0	0	0	0	1	100	1	600	300	0	0	0	0	0	0	0	0	0	0	0	2	12	12	10	10	0.26165	0.08571	0.02143	35.71429	5	3
185	0	0	0	0	1	100	1	600	300	0	0	0	0	0	0	0	0	0	0	0	2	12	12	10	10	0.26659	0.08571	0.02143	35.71429	5	3
186	0	0	0	0	1	100	1	600	300	0	0	0	0	0	0	0	0	0	0	0	2	12	12	10	10	0.25294	0.08571	0.02143	35.71429	5	4
187	0	0	0	0	1	100	1	600	300	0	0	0	0	0	0	0	0	0	0	0	2	12	12	10	10	0.26322	0.08571	0.02143	35.71429	5	4
188	0	0	0	0	1	100	1	600	300	0	0	0	0	0	0	0	0	0	0	0	2	12	12	10	10	0.26293	0.08571	0.02143	35.71429	5	4
189	0	0	0	0	1	100	1	600	240	0	0	0	0	0	0	0	0	0	0	0	5	24	24	3	3	0.37971	0.02571	0.02529	54.28571	5	3
190	0	0	0	0	1	100	1	600	240	0	0	0	0	0	0	0	0	0	0	0	5	24	24	3	3	0.36473	0.02571	0.02529	54.28571	5	3
194	0	0	0	0	1	100	1	600	240	0	0	0	0	0	0	0	0	0	0	0	5	24	24	3	3	0.38396	0.02571	0.02529	54.28571	5	7
196	0	0	0	0	1	100	1	500	0	0	0	0	0	0	0	0	0	0	0	0	1	62.5	62.5	0	0	0.00464	0.00000	0.03857	0.00000	5	4
196	0	0	0	0	1	100	1	300	165	0	0	0	0	0	0	0	0	0	0	0	2	6	6	8	8	0.14592	0.04286	0.01000	60.00000	5	8
197	0	0	0	0	1	100	1	300	165	0	0	0	0	0	0	0	0	0	0	0	2	6	6	8	8	0.14339	0.04286	0.01286	60.00000	5	8
198	0	0	0	0	1	100	1	300	165	0	0	0	0	0	0	0	0	0	0	0	2	6	6	8	8	0.14728	0.04286	0.01286	60.00000	5	11
199	0	0	0	0	1	100	1	300	165	0	0	0	0	0	0	0	0	0	0	0	2	6	6	8	8	0.14304	0.04286	0.01286	60.00000	5	4
200	0	0	0	0	1	100	1	330	165	0	0	0	0	0	0	0	0	0	0	0	2	6.6	6.6	8	8	0.14537	0.04714	0.01286	57.14286	5	6
201	0	0	0	0	1	100	1	300	165	0	0	0	0	0	0	0	0	0	0	0	2	6	6	8	8	0.13499	0.04286	0.01000	60.00000	5	3
202	0	0	0	0	1	100	1	500	0	0	0	0	0	0	0	0	0	0	0	0	1	62.5	62.5	0	0	0.00476	0.00000	0.03857	0.00000	5	8
202	0	0	0	0	1	100	1	330	165	0	0	0	0	0	0	0	0	0	0	0	2	6.6	6.6	8	8	0.13909	0.04714	0.01286	57.14286	5	4
203	0	0	0	0	1	100	1	500	0	0	0	0	0	0	0	0	0	0	0	0	1	62.5	62.5	0	0	0.00464	0.00000	0.03857	0.00000	5	4
203	0	0	0	0	1	100	1	350	175	0	0	0	0	0	0	0	0	0	0	0	2	7	7	8	8	0.13406	0.05000	0.01286	57.14286	5	3
204	0	0	0	0	1	100	1	200	110	0	0	0	0	0	0	0	0	0	0	0	2	4	4	8	8	0.14229	0.02857	0.01000	60.00000	5	1
205	0	0	0	0	1	100	1	350	175	0	0	0	0	0	0	0	0	0	0	0	2	7	7	8	8	0.13542	0.05000	0.01286	57.14286	5	3
206	0	0	0	0	1	100	1	300	165	0	0	0	0	0	0	0	0	0	0	0	2	6	6	8	8	0.14427	0.04286	0.01000	60.00000	5	2
207	0	0	0	0	1	100	1	330	165	0	0	0	0	0	0	0	0	0	0	0	2	6.6	6.6	8	8	0.13964	0.04714	0.01286	57.14286	5	7
208	0	0	0	0	1	100	1	500	0	0	0	0	0	0	0	0	0	0	0	0	1	62.5	62.5	0	0	0.00517	0.00000	0.03857	0.00000	5	5
208	0	0	0	0	1	100	1	330	165	0	0	0	0	0	0	0	0	0	0	0	2	6.6	6.6	8	8	0.13470	0.04714	0.01286	57.14286	5	2
209	0	0	0	0	1	100	1	330	165	0	0	0	0	0	0	0	0	0	0	0	2	6.6	6.6	8	8	0.14269	0.04714	0.01286	57.14286	5	6

];

%% renewable data
% bus	Area	type(3-pv,4-wind)	Vg	mBase	status	Pmax	Pmin	FOR	cost_const(M$/(MW*y))	cost_var(M$/(MWh*y))
mpc.RE = [
8	1	3	1	100	1	250	0	0	0.024285714	0
8	1	4	1	100	1	250	0	0	0.024285714	0
10	1	3	1	100	1	5200	0	0	0.024285714	0
10	1	4	1	100	1	1050	0	0	0.024285714	0
11	1	4	1	100	1	550	0	0	0.024285714	0
12	1	4	1	100	1	550	0	0	0.024285714	0
13	1	4	1	100	1	600	0	0	0.024285714	0
15	1	3	1	100	1	1000	0	0	0.024285714	0
15	1	4	1	100	1	850	0	0	0.024285714	0
22	1	3	1	100	1	250	0	0	0.024285714	0
22	1	4	1	100	1	1100	0	0	0.024285714	0
25	1	3	1	100	1	250	0	0	0.024285714	0
28	1	3	1	100	1	500	0	0	0.024285714	0
28	1	4	1	100	1	300	0	0	0.024285714	0
31	1	3	1	100	1	200	0	0	0.024285714	0
31	1	4	1	100	1	900	0	0	0.024285714	0
32	1	3	1	100	1	150	0	0	0.024285714	0
32	1	4	1	100	1	500	0	0	0.024285714	0
34	1	3	1	100	1	150	0	0	0.024285714	0
34	1	4	1	100	1	450	0	0	0.024285714	0
36	1	3	1	100	1	300	0	0	0.024285714	0
36	1	4	1	100	1	300	0	0	0.024285714	0
37	1	3	1	100	1	500	0	0	0.024285714	0
37	1	4	1	100	1	550	0	0	0.024285714	0
38	1	3	1	100	1	200	0	0	0.024285714	0
55	2	4	1	100	1	550	0	0	0.024285714	0
56	2	4	1	100	1	800	0	0	0.024285714	0
58	2	3	1	100	1	1300	0	0	0.024285714	0
60	2	3	1	100	1	1300	0	0	0.024285714	0
61	2	4	1	100	1	500	0	0	0.024285714	0
62	2	4	1	100	1	700	0	0	0.024285714	0
63	2	4	1	100	1	1000	0	0	0.024285714	0
68	2	4	1	100	1	1400	0	0	0.024285714	0
69	2	4	1	100	1	1600	0	0	0.024285714	0
70	2	4	1	100	1	1250	0	0	0.024285714	0
71	2	4	1	100	1	1250	0	0	0.024285714	0
73	2	4	1	100	1	1400	0	0	0.024285714	0
74	2	4	1	100	1	1100	0	0	0.024285714	0
75	2	4	1	100	1	1100	0	0	0.024285714	0
76	2	4	1	100	1	600	0	0	0.024285714	0
77	2	4	1	100	1	800	0	0	0.024285714	0
78	2	4	1	100	1	1100	0	0	0.024285714	0
79	2	4	1	100	1	950	0	0	0.024285714	0
80	2	3	1	100	1	2100	0	0	0.024285714	0
82	2	3	1	100	1	4100	0	0	0.024285714	0
88	2	3	1	100	1	1700	0	0	0.024285714	0
96	3	3	1	100	1	550	0	0	0.024285714	0
101	3	3	1	100	1	950	0	0	0.024285714	0
102	3	3	1	100	1	750	0	0	0.024285714	0
103	3	3	1	100	1	950	0	0	0.024285714	0
104	3	3	1	100	1	1400	0	0	0.024285714	0
105	3	3	1	100	1	550	0	0	0.024285714	0
109	3	3	1	100	1	600	0	0	0.024285714	0
110	3	4	1	100	1	1000	0	0	0.024285714	0
111	3	3	1	100	1	650	0	0	0.024285714	0
114	3	3	1	100	1	800	0	0	0.024285714	0
115	3	3	1	100	1	220	0	0	0.024285714	0
117	3	3	1	100	1	250	0	0	0.024285714	0
118	3	3	1	100	1	350	0	0	0.024285714	0
119	3	3	1	100	1	350	0	0	0.024285714	0
119	3	4	1	100	1	900	0	0	0.024285714	0
121	3	3	1	100	1	2350	0	0	0.024285714	0
122	3	3	1	100	1	850	0	0	0.024285714	0
122	3	4	1	100	1	400	0	0	0.024285714	0
123	3	3	1	100	1	350	0	0	0.024285714	0
123	3	4	1	100	1	400	0	0	0.024285714	0
144	4	3	1	100	1	1750	0	0	0.024285714	0
145	4	4	1	100	1	1250	0	0	0.024285714	0
148	4	3	1	100	1	1750	0	0	0.024285714	0
148	4	4	1	100	1	1250	0	0	0.024285714	0
149	4	4	1	100	1	1250	0	0	0.024285714	0
150	4	4	1	100	1	1250	0	0	0.024285714	0
152	4	3	1	100	1	1650	0	0	0.024285714	0
153	4	4	1	100	1	1250	0	0	0.024285714	0
154	4	3	1	100	1	1550	0	0	0.024285714	0
154	4	4	1	100	1	1250	0	0	0.024285714	0
155	4	4	1	100	1	1250	0	0	0.024285714	0
156	4	4	1	100	1	1750	0	0	0.024285714	0
157	4	3	1	100	1	1450	0	0	0.024285714	0
158	4	3	1	100	1	1450	0	0	0.024285714	0
158	4	4	1	100	1	400	0	0	0.024285714	0
161	4	4	1	100	1	1250	0	0	0.024285714	0
166	5	4	1	100	1	1450	0	0	0.024285714	0
167	5	4	1	100	1	1450	0	0	0.024285714	0
168	5	4	1	100	1	2450	0	0	0.024285714	0
169	5	4	1	100	1	2450	0	0	0.024285714	0
170	5	4	1	100	1	1450	0	0	0.024285714	0
176	5	3	1	100	1	950	0	0	0.024285714	0
176	5	4	1	100	1	1950	0	0	0.024285714	0
177	5	4	1	100	1	1050	0	0	0.024285714	0
195	5	3	1	100	1	950	0	0	0.024285714	0
197	5	3	1	100	1	1000	0	0	0.024285714	0
197	5	4	1	100	1	1050	0	0	0.024285714	0
199	5	3	1	100	1	950	0	0	0.024285714	0
199	5	4	1	100	1	1450	0	0	0.024285714	0
200	5	3	1	100	1	1000	0	0	0.024285714	0
200	5	4	1	100	1	1050	0	0	0.024285714	0
201	5	3	1	100	1	950	0	0	0.024285714	0
201	5	4	1	100	1	4000	0	0	0.024285714	0
202	5	4	1	100	1	1400	0	0	0.024285714	0
203	5	3	1	100	1	800	0	0	0.024285714	0
203	5	4	1	100	1	1400	0	0	0.024285714	0
204	5	3	1	100	1	950	0	0	0.024285714	0
206	5	3	1	100	1	1000	0	0	0.024285714	0
208	5	3	1	100	1	950	0	0	0.024285714	0
209	5	3	1	100	1	1000	0	0	0.024285714	0
209	5	4	1	100	1	1400	0	0	0.024285714	0
210	5	3	1	100	1	950	0	0	0.024285714	0

];
%% CSP data
%	bus	Pg	Qg	Qmax	Qmin	Vg	mBase	status	Pmax	Pmin	Pc1	Pc2
%	bus	Pg	Qg	Qmax	Qmin	Vg	mBase	status	Pmax	Pmin	Pc1	Pc2 Qc1min	Qc1max	Qc2min	Qc2max	ramp_agc	ramp_10	ramp_30	ramp_q	apf type(1-hydro,2-coal fired Thermal, 5-gas fired thermal)	Ramp_up(MW/min)	Ramp_down	min_up_time(h)	min_down_time	FOR	cost_start(M$)	cost_const(£¤M$/(MW*y))	cost_var($/MWh)  area	num
mpc.CSP = [
119	0	0	0	0	1	100	1	400	160	0	0	0	0	0	0	0	0	0	0	0	6	4	4	2	2	0.00000	0	0.05	0	3	1
123	0	0	0	0	1	100	1	400	160	0	0	0	0	0	0	0	0	0	0	0	6	4	4	2	2	0.00000	0	0.05	0	3	1
];

%% branch data
%	fbus	tbus	r	x	b	rateA	rateB	rateC	ratio	angle	status	angmin	angmax Idx(1:Tie Line,2:VRE integration System,3:Regional Transmission System)
mpc.branch = [
1	6	0.00007	0.00141	1.0985	4000	4000	4000	0	0	1	-360	360	3
1	2	0.00002	0.00034	0.8585	4000	4000	4000	0	0	1	-360	360	3
2	6	0.00012	0.00256	0.5201	4000	4000	4000	0	0	1	-360	360	3
2	6	0.00012	0.00256	0.5201	4000	4000	4000	0	0	1	-360	360	3
3	6	0.00008	0.0017	0.2411	4000	4000	4000	0	0	1	-360	360	3
3	4	0.00002	0.00043	0.1635	4000	4000	4000	0	0	1	-360	360	3
4	6	0.00008	0.0017	0.1885	4000	4000	4000	0	0	1	-360	360	3
4	5	0.00016	0.00341	0.2721	4000	4000	4000	0	0	1	-360	360	3
5	6	0.00002	0.00034	0.4404	4000	4000	4000	0	0	1	-360	360	3
6	8	0.00024	0.00511	0.4168	4000	4000	4000	0	0	1	-360	360	3
6	8	0.00024	0.00511	0.4168	4000	4000	4000	0	0	1	-360	360	3
6	8	0.00024	0.00511	0.4168	4000	4000	4000	0	0	1	-360	360	3
7	8	0.00006	0.00128	0.2001	4000	4000	4000	0	0	1	-360	360	3
8	14	0.00024	0.00511	0.2538	4000	4000	4000	0	0	1	-360	360	3
8	14	0.00024	0.00511	0.2538	4000	4000	4000	0	0	1	-360	360	3
9	37	0.00082	0.00487	1.0023	700	700	700	0	0	1	-360	360	2
9	37	0.00082	0.00487	1.0023	700	700	700	0	0	1	-360	360	2
9	10	0.00082	0.00487	1.0023	700	700	700	0	0	1	-360	360	2
9	10	0.00082	0.00487	1.0023	700	700	700	0	0	1	-360	360	2
10	37	0.0016	0.01094	0.6812	700	700	700	0	0	1	-360	360	2
10	11	0.00182	0.01103	0.6412	700	700	700	0	0	1	-360	360	2
11	37	0.0012	0.00707	0.4472	700	700	700	0	0	1	-360	360	2
11	37	0.0012	0.00707	0.4472	700	700	700	0	0	1	-360	360	2
12	14	0.00004	0.00085	0.6164	4000	4000	4000	0	0	1	-360	360	3
13	14	0.00243	0.01232	0.1746	4000	4000	4000	0	0	1	-360	360	3
14	17	0.0001	0.0016	1.0321	4000	4000	4000	0	0	1	-360	360	3
14	17	0.0001	0.0016	1.0321	4000	4000	4000	0	0	1	-360	360	3
15	38	0.0001	0.0017	0.5580	700	700	700	0	0	1	-360	360	2
15	38	0.0001	0.0017	0.5580	700	700	700	0	0	1	-360	360	2
16	38	0.0001	0.0017	0.5580	700	700	700	0	0	1	-360	360	3
16	38	0.0001	0.0017	0.5580	700	700	700	0	0	1	-360	360	3
37	16	0.00257	0.02025	0.9596	700	700	700	0	0	1	-360	360	3
17	19	0.0001	0.0016	1.0305	4000	4000	4000	0	0	1	-360	360	3
17	19	0.0001	0.0016	1.0305	4000	4000	4000	0	0	1	-360	360	3
14	23	0.0005	0.01152	0.3003	4000	4000	4000	0	0	1	-360	360	3
14	23	0.0005	0.01152	0.3003	4000	4000	4000	0	0	1	-360	360	3
37	20	0.004	0.025	1.0428	700	700	700	0	0	1	-360	360	2
37	20	0.004	0.025	1.0428	700	700	700	0	0	1	-360	360	2
20	21	0.00383	0.02796	0.6290	700	700	700	0	0	1	-360	360	2
21	22	0.0006	0.0037	0.7435	700	700	700	0	0	1	-360	360	2
21	22	0.0006	0.0037	0.7435	700	700	700	0	0	1	-360	360	2
22	39	0.00465	0.02765	0.6585	700	700	700	0	0	1	-360	360	2
22	39	0.00465	0.02765	0.6585	700	700	700	0	0	1	-360	360	2
19	23	0	0.001	0.5766	4000	4000	4000	0	0	1	-360	360	3
18	19	0.00001	0.00021	0.5493	4000	4000	4000	0	0	1	-360	360	3
18	19	0.00001	0.00021	0.5493	4000	4000	4000	0	0	1	-360	360	3
19	30	0.00035	0.00746	0.7511	4000	4000	4000	0	0	1	-360	360	3
19	30	0.00035	0.00746	0.7511	4000	4000	4000	0	0	1	-360	360	3
39	24	0.001	0.006	0.8562	700	700	700	0	0	1	-360	360	3
39	24	0.001	0.006	0.8562	700	700	700	0	0	1	-360	360	3
24	41	0.00003	0.00062	0.6428	700	700	700	0	0	1	-360	360	3
24	41	0.00003	0.00062	0.6428	700	700	700	0	0	1	-360	360	3
24	41	0.00003	0.00062	0.6428	700	700	700	0	0	1	-360	360	3
23	29	0.0003	0.00626	0.6902	4000	4000	4000	0	0	1	-360	360	3
23	29	0.0003	0.00626	0.6902	4000	4000	4000	0	0	1	-360	360	3
25	40	0.00257	0.03644	0.5478	700	700	700	0	0	1	-360	360	2
25	40	0.00257	0.03644	0.5478	700	700	700	0	0	1	-360	360	2
26	29	0.00016	0.00331	0.8680	4000	4000	4000	0	0	1	-360	360	3
26	29	0.00016	0.00331	0.8680	4000	4000	4000	0	0	1	-360	360	3
27	29	0.00489	0.02906	0.5769	4000	4000	4000	0	0	1	-360	360	3
27	29	0.00489	0.02906	0.5769	4000	4000	4000	0	0	1	-360	360	3
28	29	0.00007	0.00143	0.9143	4000	4000	4000	0	0	1	-360	360	3
29	30	0.0001	0.00213	0.8710	4000	4000	4000	0	0	1	-360	360	3
29	30	0.0001	0.00213	0.8710	4000	4000	4000	0	0	1	-360	360	3
30	31	0.0001	0.00213	0.8710	4000	4000	4000	0	0	1	-360	360	3
30	31	0.0001	0.00213	0.8710	4000	4000	4000	0	0	1	-360	360	3
30	33	0.00019	0.00409	0.9234	4000	4000	4000	0	0	1	-360	360	3
30	33	0.00019	0.00409	0.9234	4000	4000	4000	0	0	1	-360	360	3
32	33	0.00016	0.00372	0.2148	4000	4000	4000	0	0	1	-360	360	3
32	33	0.00016	0.00372	0.2148	4000	4000	4000	0	0	1	-360	360	3
33	34	0.00019	0.00405	0.7204	4000	4000	4000	0	0	1	-360	360	3
33	34	0.00019	0.00405	0.7204	4000	4000	4000	0	0	1	-360	360	3
34	36	0	0.0001	0.1529	4000	4000	4000	0	0	1	-360	360	3
34	36	0	0.0001	0.1529	4000	4000	4000	0	0	1	-360	360	3
29	36	0.00025	0.005	0.9759	4000	4000	4000	0	0	1	-360	360	3
29	36	0.00025	0.005	0.9759	4000	4000	4000	0	0	1	-360	360	3
34	35	0.00004	0.00079	1.0069	4000	4000	4000	0	0	1	-360	360	3
33	44	0.00035	0.0072	0.1820	4000	4000	4000	0	0	1	-360	360	1