function mpc = case213

%   MATPOWER

%% MATPOWER Case Format : Version 2
mpc.version = '2';

%%-----  Power Flow Data  -----%%
%% system MVA base
mpc.baseMVA = 100;

%% bus data
%	bus_i	type	Pd	Qd	Gs	Bs	area	Vm	Va	baseKV	zone	Vmax	Vmin
mpc.bus = [
1	3	207.5078	0	0	0	1	1	0	788	1	1.1	0.9
2	2	207.5078	0	0	0	1	1	0	788	1	1.1	0.9
3	2	207.5078	0	0	0	1	1	0	788	1	1.1	0.9
4	2	207.5078	0	0	0	1	1	0	788	1	1.1	0.9
5	2	207.5078	0	0	0	1	1	0	788	1	1.1	0.9
6	1	0.0000	0	0	0	1	1	0	788	1	1.1	0.9
7	2	124.5047	0	0	0	1	1	0	788	1	1.1	0.9
8	1	0.0000	0	0	0	1	1	0	788	1	1.1	0.9
9	2	103.7539	0	0	0	1	1	0	345	1	1.1	0.9
10	2	2488.3640	0	0	0	1	1	0	345	1	1.1	0.9
11	1	0.0000	0	0	0	1	1	0	345	1	1.1	0.9
12	2	124.5047	0	0	0	1	1	0	788	1	1.1	0.9
13	1	0.0000	0	0	0	1	1	0	788	1	1.1	0.9
14	1	0.0000	0	0	0	1	1	0	788	1	1.1	0.9
15	2	0.0000	0	0	0	1	1	0	345	1	1.1	0.9
16	2	0.0000	0	0	0	1	1	0	345	1	1.1	0.9
17	1	0.0000	0	0	0	1	1	0	788	1	1.1	0.9
18	2	79.5446	0	0	0	1	1	0	788	1	1.1	0.9
19	1	0.0000	0	0	0	1	1	0	788	1	1.1	0.9
20	1	489.3725	0	0	0	1	1	0	345	1	1.1	0.9
21	2	103.7539	0	0	0	1	1	0	345	1	1.1	0.9
22	1	478.9971	0	0	0	1	1	0	345	1	1.1	0.9
23	1	0.0000	0	0	0	1	1	0	788	1	1.1	0.9
24	2	2382.8809	0	0	0	1	1	0	345	1	1.1	0.9
25	2	389.0771	0	0	0	1	1	0	345	1	1.1	0.9
26	1	864.6157	0	0	0	1	1	0	788	1	1.1	0.9
27	1	1417.9697	0	0	0	1	1	0	788	1	1.1	0.9
28	1	62.2523	0	0	0	1	1	0	788	1	1.1	0.9
29	1	0.0000	0	0	0	1	1	0	788	1	1.1	0.9
30	1	0.0000	0	0	0	1	1	0	788	1	1.1	0.9
31	2	145.2554	0	0	0	1	1	0	788	1	1.1	0.9
32	2	62.2523	0	0	0	1	1	0	788	1	1.1	0.9
33	1	1462.9298	0	0	0	1	1	0	788	1	1.1	0.9
34	2	1569.6628	0	0	0	1	1	0	788	1	1.1	0.9
35	2	0.0000	0	0	0	1	1	0	788	1	1.1	0.9
36	2	4604.9432	0	0	0	1	1	0	788	1	1.1	0.9
37	1	0.0000	0	0	0	1	1	0	345	1	1.1	0.9
38	1	484.1848	0	0	0	1	1	0	345	1	1.1	0.9
39	1	0.0000	0	0	0	1	1	0	345	1	1.1	0.9
40	1	4572.0878	0	0	0	1	1	0	345	1	1.1	0.9
41	1	1390.3020	0	0	0	1	1	0	345	1	1.1	0.9
												
42	2	55.2552	0	0	0	2	1	0	788	2	1.1	0.9
43	2	55.2552	0	0	0	2	1	0	788	2	1.1	0.9
44	1	1964.6307	0	0	0	2	1	0	788	2	1.1	0.9
45	2	2072.0714	0	0	0	2	1	0	788	2	1.1	0.9
46	1	0.0000	0	0	0	2	1	0	788	2	1.1	0.9
47	2	110.5105	0	0	0	2	1	0	788	2	1.1	0.9
48	2	223.1698	0	0	0	2	1	0	345	2	1.1	0.9
49	1	1672.0714	0	0	0	2	1	0	345	2	1.1	0.9
50	1	0.0000	0	0	0	2	1	0	788	2	1.1	0.9
51	1	3752.7516	0	0	0	2	1	0	788	2	1.1	0.9
52	2	0.0000	0	0	0	2	1	0	345	2	1.1	0.9
53	1	0.0000	0	0	0	2	1	0	345	2	1.1	0.9
54	1	987.6874	0	0	0	2	1	0	345	2	1.1	0.9
55	1	0.0000	0	0	0	2	1	0	345	2	1.1	0.9
56	1	0.0000	0	0	0	2	1	0	345	2	1.1	0.9
57	1	0.0000	0	0	0	2	1	0	788	2	1.1	0.9
58	1	0.0000	0	0	0	2	1	0	788	2	1.1	0.9
59	1	329.7630	0	0	0	2	1	0	788	2	1.1	0.9
60	1	0.0000	0	0	0	2	1	0	345	2	1.1	0.9
61	1	613.9471	0	0	0	2	1	0	345	2	1.1	0.9
62	1	0.0000	0	0	0	2	1	0	345	2	1.1	0.9
63	1	0.0000	0	0	0	2	1	0	345	2	1.1	0.9
64	1	0.0000	0	0	0	2	1	0	345	2	1.1	0.9
65	1	0.0000	0	0	0	2	1	0	788	2	1.1	0.9
66	2	0.0000	0	0	0	2	1	0	788	2	1.1	0.9
67	1	18.4184	0	0	0	2	1	0	788	2	1.1	0.9
68	1	0.0000	0	0	0	2	1	0	345	2	1.1	0.9
69	1	0.0000	0	0	0	2	1	0	345	2	1.1	0.9
70	1	0.0000	0	0	0	2	1	0	345	2	1.1	0.9
71	1	0.0000	0	0	0	2	1	0	345	2	1.1	0.9
72	1	0.0000	0	0	0	2	1	0	788	2	1.1	0.9
73	1	0.0000	0	0	0	2	1	0	345	2	1.1	0.9
74	1	0.0000	0	0	0	2	1	0	345	2	1.1	0.9
75	1	0.0000	0	0	0	2	1	0	345	2	1.1	0.9
76	1	0.0000	0	0	0	2	1	0	345	2	1.1	0.9
77	1	0.0000	0	0	0	2	1	0	345	2	1.1	0.9
78	1	0.0000	0	0	0	2	1	0	345	2	1.1	0.9
79	1	0.0000	0	0	0	2	1	0	345	2	1.1	0.9
80	1	419.0189	0	0	0	2	1	0	345	2	1.1	0.9
81	1	0.0000	0	0	0	2	1	0	788	2	1.1	0.9
82	1	0.0000	0	0	0	2	1	0	345	2	1.1	0.9
83	1	0.0000	0	0	0	2	1	0	788	2	1.1	0.9
84	1	613.9471	0	0	0	2	1	0	345	2	1.1	0.9
85	1	2309.9759	0	0	0	2	1	0	345	2	1.1	0.9
86	2	1565.5651	0	0	0	2	1	0	345	2	1.1	0.9
87	2	1818.8182	0	0	0	2	1	0	345	2	1.1	0.9
88	1	415.9492	0	0	0	2	1	0	345	2	1.1	0.9
89	1	0.0000	0	0	0	2	1	0	345	2	1.1	0.9
90	2	1375.2415	0	0	0	2	1	0	345	2	1.1	0.9
91	2	85.9526	0	0	0	2	1	0	345	2	1.1	0.9
												
92	1	1204.9735	0	0	0	3	1	0	788	3	1.1	0.9
93	1	926.9027	0	0	0	3	1	0	788	3	1.1	0.9
94	2	0.0000	0	0	0	3	1	0	788	3	1.1	0.9
95	2	0.0000	0	0	0	3	1	0	345	3	1.1	0.9
96	1	0.0000	0	0	0	3	1	0	345	3	1.1	0.9
97	1	0.0000	0	0	0	3	1	0	788	3	1.1	0.9
98	1	0.0000	0	0	0	3	1	0	788	3	1.1	0.9
99	2	2169.5316	0	0	0	3	1	0	788	3	1.1	0.9
100	1	2078.7724	0	0	0	3	1	0	788	3	1.1	0.9
101	1	0.0000	0	0	0	3	1	0	345	3	1.1	0.9
102	1	0.0000	0	0	0	3	1	0	345	3	1.1	0.9
103	1	0.0000	0	0	0	3	1	0	345	3	1.1	0.9
104	1	0.0000	0	0	0	3	1	0	345	3	1.1	0.9
105	1	0.0000	0	0	0	3	1	0	345	3	1.1	0.9
106	1	0.0000	0	0	0	3	1	0	788	3	1.1	0.9
107	1	0.0000	0	0	0	3	1	0	788	3	1.1	0.9
108	2	86.8971	0	0	0	3	1	0	345	3	1.1	0.9
109	1	0.0000	0	0	0	3	1	0	115	3	1.1	0.9
110	1	0.0000	0	0	0	3	1	0	345	3	1.1	0.9
111	2	0.0000	0	0	0	3	1	0	345	3	1.1	0.9
112	1	0.0000	0	0	0	3	1	0	345	3	1.1	0.9
113	1	0.0000	0	0	0	3	1	0	788	3	1.1	0.9
114	1	0.0000	0	0	0	3	1	0	115	3	1.1	0.9
115	1	0.0000	0	0	0	3	1	0	115	3	1.1	0.9
116	1	0.0000	0	0	0	3	1	0	345	3	1.1	0.9
117	1	0.0000	0	0	0	3	1	0	115	3	1.1	0.9
118	1	0.0000	0	0	0	3	1	0	115	3	1.1	0.9
119	1	0.0000	0	0	0	3	1	0	345	3	1.1	0.9
120	1	0.0000	0	0	0	3	1	0	345	3	1.1	0.9
121	1	0.0000	0	0	0	3	1	0	345	3	1.1	0.9
122	1	0.0000	0	0	0	3	1	0	115	3	1.1	0.9
123	1	0.0000	0	0	0	3	1	0	345	3	1.1	0.9
124	1	0.0000	0	0	0	3	1	0	345	3	1.1	0.9
125	1	0.0000	0	0	0	3	1	0	788	3	1.1	0.9
126	2	0.0000	0	0	0	3	1	0	788	3	1.1	0.9
127	2	0.0000	0	0	0	3	1	0	788	3	1.1	0.9
128	1	62.7590	0	0	0	3	1	0	788	3	1.1	0.9
129	1	1484.0099	0	0	0	3	1	0	345	3	1.1	0.9
130	1	0.0000	0	0	0	3	1	0	345	3	1.1	0.9
131	2	0.0000	0	0	0	3	1	0	345	3	1.1	0.9
132	1	816.8330	0	0	0	3	1	0	115	3	1.1	0.9
133	1	231.7257	0	0	0	3	1	0	115	3	1.1	0.9
134	1	147.7251	0	0	0	3	1	0	115	3	1.1	0.9
135	2	1179.8699	0	0	0	3	1	0	115	3	1.1	0.9
136	1	0.0000	0	0	0	3	1	0	345	3	1.1	0.9
137	1	0.0000	0	0	0	3	1	0	345	3	1.1	0.9
												
138	2	97.9068	0	0	0	4	1	0	525	4	1.1	0.9
139	2	97.9068	0	0	0	4	1	0	525	4	1.1	0.9
140	2	97.9068	0	0	0	4	1	0	525	4	1.1	0.9
141	2	97.9068	0	0	0	4	1	0	525	4	1.1	0.9
142	1	0.0000	0	0	0	4	1	0	788	4	1.1	0.9
143	1	1231.9937	0	0	0	4	1	0	788	4	1.1	0.9
144	2	1373.9585	0	0	0	4	1	0	345	4	1.1	0.9
145	2	195.8136	0	0	0	4	1	0	788	4	1.1	0.9
146	2	117.4881	0	0	0	4	1	0	788	4	1.1	0.9
147	1	0.0000	0	0	0	4	1	0	788	4	1.1	0.9
148	2	117.4881	0	0	0	4	1	0	788	4	1.1	0.9
149	2	117.4881	0	0	0	4	1	0	788	4	1.1	0.9
150	2	117.4881	0	0	0	4	1	0	788	4	1.1	0.9
151	2	195.8136	0	0	0	4	1	0	788	4	1.1	0.9
152	2	117.4881	0	0	0	4	1	0	788	4	1.1	0.9
153	2	195.8136	0	0	0	4	1	0	788	4	1.1	0.9
154	2	848.5255	0	0	0	4	1	0	788	4	1.1	0.9
155	1	463.4254	0	0	0	4	1	0	788	4	1.1	0.9
156	1	1620.3573	0	0	0	4	1	0	788	4	1.1	0.9
157	2	117.4881	0	0	0	4	1	0	788	4	1.1	0.9
158	1	3981.5425	0	0	0	4	1	0	788	4	1.1	0.9
159	1	0.0000	0	0	0	4	1	0	788	4	1.1	0.9
160	2	234.9763	0	0	0	4	1	0	788	4	1.1	0.9
161	1	818.6639	0	0	0	4	1	0	788	4	1.1	0.9
162	1	0.0000	0	0	0	4	1	0	525	4	1.1	0.9
163	1	2842.5603	0	0	0	4	1	0	345	4	1.1	0.9
												
164	1	0.0000	0	0	0	5	1	0	788	5	1.1	0.9
165	1	0.0000	0	0	0	5	1	0	230	5	1.1	0.9
166	1	0.0000	0	0	0	5	1	0	115	5	1.1	0.9
167	1	0.0000	0	0	0	5	1	0	115	5	1.1	0.9
168	1	0.0000	0	0	0	5	1	0	115	5	1.1	0.9
169	1	0.0000	0	0	0	5	1	0	230	5	1.1	0.9
170	1	0.0000	0	0	0	5	1	0	230	5	1.1	0.9
171	1	0.0000	0	0	0	5	1	0	788	5	1.1	0.9
172	2	0.0000	0	0	0	5	1	0	525	5	1.1	0.9
173	2	0.0000	0	0	0	5	1	0	525	5	1.1	0.9
174	2	0.0000	0	0	0	5	1	0	525	5	1.1	0.9
175	2	0.0000	0	0	0	5	1	0	525	5	1.1	0.9
176	2	0.0000	0	0	0	5	1	0	788	5	1.1	0.9
177	1	0.0000	0	0	0	5	1	0	788	5	1.1	0.9
178	1	0.0000	0	0	0	5	1	0	788	5	1.1	0.9
179	2	99.1780	0	0	0	5	1	0	788	5	1.1	0.9
180	2	0.0000	0	0	0	5	1	0	788	5	1.1	0.9
181	2	0.0000	0	0	0	5	1	0	788	5	1.1	0.9
182	2	4656.9815	0	0	0	5	1	0	788	5	1.1	0.9
183	2	274.6469	0	0	0	5	1	0	788	5	1.1	0.9
184	1	0.0000	0	0	0	5	1	0	788	5	1.1	0.9
185	2	274.6469	0	0	0	5	1	0	788	5	1.1	0.9
186	2	274.6469	0	0	0	5	1	0	788	5	1.1	0.9
187	2	274.6469	0	0	0	5	1	0	788	5	1.1	0.9
188	2	274.6469	0	0	0	5	1	0	788	5	1.1	0.9
189	2	274.6469	0	0	0	5	1	0	788	5	1.1	0.9
190	2	274.6469	0	0	0	5	1	0	788	5	1.1	0.9
191	1	0.0000	0	0	0	5	1	0	788	5	1.1	0.9
192	1	0.0000	0	0	0	5	1	0	788	5	1.1	0.9
193	1	0.0000	0	0	0	5	1	0	788	5	1.1	0.9
194	2	2879.2226	0	0	0	5	1	0	788	5	1.1	0.9
195	1	1277.8710	0	0	0	5	1	0	788	5	1.1	0.9
196	1	2554.0254	0	0	0	5	1	0	788	5	1.1	0.9
197	2	4386.7213	0	0	0	5	1	0	788	5	1.1	0.9
198	2	4884.5188	0	0	0	5	1	0	788	5	1.1	0.9
199	2	1453.3398	0	0	0	5	1	0	788	5	1.1	0.9
200	2	2214.3406	0	0	0	5	1	0	788	5	1.1	0.9
201	2	414.4498	0	0	0	5	1	0	788	5	1.1	0.9
202	1	1570.0648	0	0	0	5	1	0	788	5	1.1	0.9
203	1	2209.5724	0	0	0	5	1	0	788	5	1.1	0.9
204	2	886.8806	0	0	0	5	1	0	788	5	1.1	0.9
205	2	699.0145	0	0	0	5	1	0	788	5	1.1	0.9
206	2	667.5445	0	0	0	5	1	0	788	5	1.1	0.9
207	2	2670.1782	0	0	0	5	1	0	788	5	1.1	0.9
208	1	3038.2813	0	0	0	5	1	0	788	5	1.1	0.9
209	2	3108.4689	0	0	0	5	1	0	788	5	1.1	0.9
210	1	476.8175	0	0	0	5	1	0	788	5	1.1	0.9
211	1	0.0000	0	0	0	5	1	0	230	5	1.1	0.9
212	1	0.0000	0	0	0	5	1	0	115	5	1.1	0.9
213	1	0.0000	0	0	0	5	1	0	525	5	1.1	0.9

];

%% generator data
%	bus	Pg	Qg	Qmax	Qmin	Vg	mBase	status	Pmax	Pmin	Pc1	Pc2	Qc1min	Qc1max	Qc2min	Qc2max	ramp_agc(MW/min)	ramp_10(MW)	ramp_30(MW)	ramp_q	apf	type(1-hydro,2-coal-fired thermal,5-gas-fired thermal)	min_up_time(h)	min_down_time(h)	FOR
mpc.gen = [
1	0	0	0	0	1	100	1	1000	500	0	0	0	0	0	0	15	150	450	0	0	2	12	12	0.31773
1	0	0	0	0	1	100	1	1000	500	0	0	0	0	0	0	15	150	450	0	0	2	12	12	0.31773
1	0	0	0	0	1	100	1	1000	500	0	0	0	0	0	0	15	150	450	0	0	2	12	12	0.31773
1	0	0	0	0	1	100	1	1000	500	0	0	0	0	0	0	15	150	450	0	0	2	12	12	0.31773
2	0	0	0	0	1	100	1	1000	500	0	0	0	0	0	0	15	150	450	0	0	2	12	12	0.32988
2	0	0	0	0	1	100	1	1000	500	0	0	0	0	0	0	15	150	450	0	0	2	12	12	0.32988
2	0	0	0	0	1	100	1	1000	500	0	0	0	0	0	0	15	150	450	0	0	2	12	12	0.32988
2	0	0	0	0	1	100	1	1000	500	0	0	0	0	0	0	15	150	450	0	0	2	12	12	0.32988
3	0	0	0	0	1	100	1	1000	500	0	0	0	0	0	0	15	150	450	0	0	2	12	12	0.33321
3	0	0	0	0	1	100	1	1000	500	0	0	0	0	0	0	15	150	450	0	0	2	12	12	0.33321
3	0	0	0	0	1	100	1	1000	500	0	0	0	0	0	0	15	150	450	0	0	2	12	12	0.33321
3	0	0	0	0	1	100	1	1000	500	0	0	0	0	0	0	15	150	450	0	0	2	12	12	0.33321
4	0	0	0	0	1	100	1	1000	500	0	0	0	0	0	0	15	150	450	0	0	2	12	12	0.33410
4	0	0	0	0	1	100	1	1000	500	0	0	0	0	0	0	15	150	450	0	0	2	12	12	0.33410
5	0	0	0	0	1	100	1	1000	500	0	0	0	0	0	0	15	150	450	0	0	2	12	12	0.33280
5	0	0	0	0	1	100	1	1000	500	0	0	0	0	0	0	15	150	450	0	0	2	12	12	0.33280
7	0	0	0	0	1	100	1	500	250	0	0	0	0	0	0	10	100	300	0	0	2	10	10	0.25603
7	0	0	0	0	1	100	1	500	250	0	0	0	0	0	0	10	100	300	0	0	2	10	10	0.25603
7	0	0	0	0	1	100	1	500	250	0	0	0	0	0	0	10	100	300	0	0	2	10	10	0.25603
9	0	0	0	0	1	100	1	330	165	0	0	0	0	0	0	6.6	66	198	0	0	2	8	8	0.14494
9	0	0	0	0	1	100	1	330	165	0	0	0	0	0	0	6.6	66	198	0	0	2	8	8	0.14494
10	0	0	0	0	1	100	1	300	165	0	0	0	0	0	0	6	60	180	0	0	2	8	8	0.14223
10	0	0	0	0	1	100	1	300	165	0	0	0	0	0	0	6	60	180	0	0	2	8	8	0.14223
10	0	0	0	0	1	100	1	300	165	0	0	0	0	0	0	6	60	180	0	0	2	8	8	0.14223
10	0	0	0	0	1	100	1	300	165	0	0	0	0	0	0	6	60	180	0	0	2	8	8	0.14223
10	0	0	0	0	1	100	1	300	165	0	0	0	0	0	0	6	60	180	0	0	2	8	8	0.14223
10	0	0	0	0	1	100	1	300	165	0	0	0	0	0	0	6	60	180	0	0	2	8	8	0.14223
12	0	0	0	0	1	100	1	600	240	0	0	0	0	0	0	24	240	720	0	0	5	3	3	0.36078
15	0	0	0	0	1	100	1	700	350	0	0	0	0	0	0	10.5	105	315	0	0	2	10	10	0.25976
15	0	0	0	0	1	100	1	700	350	0	0	0	0	0	0	10.5	105	315	0	0	2	10	10	0.25976
16	0	0	0	0	1	100	1	330	165	0	0	0	0	0	0	6.6	66	198	0	0	2	8	8	0.14605
16	0	0	0	0	1	100	1	330	165	0	0	0	0	0	0	6.6	66	198	0	0	2	8	8	0.14605
16	0	0	0	0	1	100	1	330	165	0	0	0	0	0	0	6.6	66	198	0	0	2	8	8	0.14605
18	0	0	0	0	1	100	1	600	240	0	0	0	0	0	0	24	240	720	0	0	5	3	3	0.37931
21	0	0	0	0	1	100	1	330	165	0	0	0	0	0	0	6.6	66	198	0	0	2	8	8	0.13499
21	0	0	0	0	1	100	1	330	165	0	0	0	0	0	0	6.6	66	198	0	0	2	8	8	0.13499
21	0	0	0	0	1	100	1	330	165	0	0	0	0	0	0	6.6	66	198	0	0	2	8	8	0.13499
24	0	0	0	0	1	100	1	300	165	0	0	0	0	0	0	6	60	180	0	0	2	8	8	0.14517
24	0	0	0	0	1	100	1	300	165	0	0	0	0	0	0	6	60	180	0	0	2	8	8	0.14517
24	0	0	0	0	1	100	1	300	165	0	0	0	0	0	0	6	60	180	0	0	2	8	8	0.14517
24	0	0	0	0	1	100	1	300	165	0	0	0	0	0	0	6	60	180	0	0	2	8	8	0.14517
24	0	0	0	0	1	100	1	300	165	0	0	0	0	0	0	6	60	180	0	0	2	8	8	0.14517
25	0	0	0	0	1	100	1	600	240	0	0	0	0	0	0	24	240	720	0	0	5	3	3	0.37741
25	0	0	0	0	1	100	1	600	240	0	0	0	0	0	0	24	240	720	0	0	5	3	3	0.37741
25	0	0	0	0	1	100	1	600	240	0	0	0	0	0	0	24	240	720	0	0	5	3	3	0.37741
25	0	0	0	0	1	100	1	600	240	0	0	0	0	0	0	24	240	720	0	0	5	3	3	0.37741
28	0	0	0	0	1	100	1	500	0	0	0	0	0	0	0	62.5	625	1875	0	0	1	0	0	0.00515
28	0	0	0	0	1	100	1	500	0	0	0	0	0	0	0	62.5	625	1875	0	0	1	0	0	0.00515
28	0	0	0	0	1	100	1	600	240	0	0	0	0	0	0	24	240	720	0	0	5	3	3	0.36287
28	0	0	0	0	1	100	1	600	240	0	0	0	0	0	0	24	240	720	0	0	5	3	3	0.36287
31	0	0	0	0	1	100	1	1000	500	0	0	0	0	0	0	15	150	450	0	0	2	12	12	0.32329
31	0	0	0	0	1	100	1	1000	500	0	0	0	0	0	0	15	150	450	0	0	2	12	12	0.32329
31	0	0	0	0	1	100	1	1000	500	0	0	0	0	0	0	15	150	450	0	0	2	12	12	0.32329
31	0	0	0	0	1	100	1	1000	500	0	0	0	0	0	0	15	150	450	0	0	2	12	12	0.32329
31	0	0	0	0	1	100	1	1000	500	0	0	0	0	0	0	15	150	450	0	0	2	12	12	0.32329
31	0	0	0	0	1	100	1	1000	500	0	0	0	0	0	0	15	150	450	0	0	2	12	12	0.32329
31	0	0	0	0	1	100	1	1000	500	0	0	0	0	0	0	15	150	450	0	0	2	12	12	0.32329
31	0	0	0	0	1	100	1	1000	500	0	0	0	0	0	0	15	150	450	0	0	2	12	12	0.32329
32	0	0	0	0	1	100	1	600	300	0	0	0	0	0	0	12	120	360	0	0	2	10	10	0.26316
32	0	0	0	0	1	100	1	600	300	0	0	0	0	0	0	12	120	360	0	0	2	10	10	0.26316
34	0	0	0	0	1	100	1	500	0	0	0	0	0	0	0	62.5	625	1875	0	0	1	0	0	0.00513
34	0	0	0	0	1	100	1	500	0	0	0	0	0	0	0	62.5	625	1875	0	0	1	0	0	0.00513
35	0	0	0	0	1	100	1	600	240	0	0	0	0	0	0	24	240	720	0	0	5	3	3	0.38093
35	0	0	0	0	1	100	1	600	240	0	0	0	0	0	0	24	240	720	0	0	5	3	3	0.38093
36	0	0	0	0	1	100	1	500	0	0	0	0	0	0	0	62.5	625	1875	0	0	1	0	0	0.00520
36	0	0	0	0	1	100	1	500	0	0	0	0	0	0	0	62.5	625	1875	0	0	1	0	0	0.00520
36	0	0	0	0	1	100	1	500	0	0	0	0	0	0	0	62.5	625	1875	0	0	1	0	0	0.00520
36	0	0	0	0	1	100	1	500	0	0	0	0	0	0	0	62.5	625	1875	0	0	1	0	0	0.00520
42	0	0	0	0	1	100	1	600	300	0	0	0	0	0	0	12	120	360	0	0	2	10	10	0.25603
42	0	0	0	0	1	100	1	600	300	0	0	0	0	0	0	12	120	360	0	0	2	10	10	0.25603
43	0	0	0	0	1	100	1	600	300	0	0	0	0	0	0	12	120	360	0	0	2	10	10	0.26223
43	0	0	0	0	1	100	1	600	300	0	0	0	0	0	0	12	120	360	0	0	2	10	10	0.26223
44	0	0	0	0	1	100	1	500	0	0	0	0	0	0	0	62.5	625	1875	0	0	1	0	0	0.00517
44	0	0	0	0	1	100	1	500	0	0	0	0	0	0	0	62.5	625	1875	0	0	1	0	0	0.00517
44	0	0	0	0	1	100	1	500	0	0	0	0	0	0	0	62.5	625	1875	0	0	1	0	0	0.00517
44	0	0	0	0	1	100	1	300	165	0	0	0	0	0	0	6	60	180	0	0	2	8	8	0.13656
44	0	0	0	0	1	100	1	300	165	0	0	0	0	0	0	6	60	180	0	0	2	8	8	0.13656
44	0	0	0	0	1	100	1	300	165	0	0	0	0	0	0	6	60	180	0	0	2	8	8	0.13656
44	0	0	0	0	1	100	1	300	165	0	0	0	0	0	0	6	60	180	0	0	2	8	8	0.13656
45	0	0	0	0	1	100	1	300	165	0	0	0	0	0	0	6	60	180	0	0	2	8	8	0.14480
45	0	0	0	0	1	100	1	300	165	0	0	0	0	0	0	6	60	180	0	0	2	8	8	0.14480
45	0	0	0	0	1	100	1	300	165	0	0	0	0	0	0	6	60	180	0	0	2	8	8	0.14480
45	0	0	0	0	1	100	1	300	165	0	0	0	0	0	0	6	60	180	0	0	2	8	8	0.14480
47	0	0	0	0	1	100	1	600	240	0	0	0	0	0	0	24	240	720	0	0	5	3	3	0.37068
47	0	0	0	0	1	100	1	600	240	0	0	0	0	0	0	24	240	720	0	0	5	3	3	0.37068
48	0	0	0	0	1	100	1	330	165	0	0	0	0	0	0	6.6	66	198	0	0	2	8	8	0.13670
48	0	0	0	0	1	100	1	330	165	0	0	0	0	0	0	6.6	66	198	0	0	2	8	8	0.13670
48	0	0	0	0	1	100	1	330	165	0	0	0	0	0	0	6.6	66	198	0	0	2	8	8	0.13670
48	0	0	0	0	1	100	1	330	165	0	0	0	0	0	0	6.6	66	198	0	0	2	8	8	0.13670
48	0	0	0	0	1	100	1	330	165	0	0	0	0	0	0	6.6	66	198	0	0	2	8	8	0.13670
48	0	0	0	0	1	100	1	330	165	0	0	0	0	0	0	6.6	66	198	0	0	2	8	8	0.13670
48	0	0	0	0	1	100	1	330	165	0	0	0	0	0	0	6.6	66	198	0	0	2	8	8	0.13670
52	0	0	0	0	1	100	1	300	165	0	0	0	0	0	0	6	60	180	0	0	2	8	8	0.14020
53	0	0	0	0	1	100	1	500	0	0	0	0	0	0	0	62.5	625	1875	0	0	1	0	0	0.00520
53	0	0	0	0	1	100	1	500	0	0	0	0	0	0	0	62.5	625	1875	0	0	1	0	0	0.00520
53	0	0	0	0	1	100	1	500	0	0	0	0	0	0	0	62.5	625	1875	0	0	1	0	0	0.00520
53	0	0	0	0	1	100	1	500	0	0	0	0	0	0	0	62.5	625	1875	0	0	1	0	0	0.00520
53	0	0	0	0	1	100	1	500	0	0	0	0	0	0	0	62.5	625	1875	0	0	1	0	0	0.00520
53	0	0	0	0	1	100	1	300	150	0	0	0	0	0	0	6	60	180	0	0	2	8	8	0.13805
53	0	0	0	0	1	100	1	300	150	0	0	0	0	0	0	6	60	180	0	0	2	8	8	0.13805
59	0	0	0	0	1	100	1	500	0	0	0	0	0	0	0	62.5	625	1875	0	0	1	0	0	0.00487
59	0	0	0	0	1	100	1	500	0	0	0	0	0	0	0	62.5	625	1875	0	0	1	0	0	0.00487
59	0	0	0	0	1	100	1	500	0	0	0	0	0	0	0	62.5	625	1875	0	0	1	0	0	0.00487
59	0	0	0	0	1	100	1	500	0	0	0	0	0	0	0	62.5	625	1875	0	0	1	0	0	0.00487
59	0	0	0	0	1	100	1	300	165	0	0	0	0	0	0	6	60	180	0	0	2	8	8	0.13549
59	0	0	0	0	1	100	1	300	165	0	0	0	0	0	0	6	60	180	0	0	2	8	8	0.13549
59	0	0	0	0	1	100	1	300	165	0	0	0	0	0	0	6	60	180	0	0	2	8	8	0.13549
66	0	0	0	0	1	100	1	1000	500	0	0	0	0	0	0	15	150	450	0	0	2	12	12	0.32557
66	0	0	0	0	1	100	1	1000	500	0	0	0	0	0	0	15	150	450	0	0	2	12	12	0.32557
66	0	0	0	0	1	100	1	1000	500	0	0	0	0	0	0	15	150	450	0	0	2	12	12	0.32557
66	0	0	0	0	1	100	1	1000	500	0	0	0	0	0	0	15	150	450	0	0	2	12	12	0.32557
86	0	0	0	0	1	100	1	350	175	0	0	0	0	0	0	7	70	210	0	0	2	8	8	0.14125
86	0	0	0	0	1	100	1	350	175	0	0	0	0	0	0	7	70	210	0	0	2	8	8	0.14125
86	0	0	0	0	1	100	1	350	175	0	0	0	0	0	0	7	70	210	0	0	2	8	8	0.14125
86	0	0	0	0	1	100	1	350	175	0	0	0	0	0	0	7	70	210	0	0	2	8	8	0.14125
86	0	0	0	0	1	100	1	350	175	0	0	0	0	0	0	7	70	210	0	0	2	8	8	0.14125
86	0	0	0	0	1	100	1	350	175	0	0	0	0	0	0	7	70	210	0	0	2	8	8	0.14125
87	0	0	0	0	1	100	1	300	165	0	0	0	0	0	0	6	60	180	0	0	2	8	8	0.13736
87	0	0	0	0	1	100	1	300	165	0	0	0	0	0	0	6	60	180	0	0	2	8	8	0.13736
87	0	0	0	0	1	100	1	300	165	0	0	0	0	0	0	6	60	180	0	0	2	8	8	0.13736
87	0	0	0	0	1	100	1	300	165	0	0	0	0	0	0	6	60	180	0	0	2	8	8	0.13736
88	0	0	0	0	1	100	1	500	0	0	0	0	0	0	0	62.5	625	1875	0	0	1	0	0	0.00532
88	0	0	0	0	1	100	1	500	0	0	0	0	0	0	0	62.5	625	1875	0	0	1	0	0	0.00532
88	0	0	0	0	1	100	1	500	0	0	0	0	0	0	0	62.5	625	1875	0	0	1	0	0	0.00532
88	0	0	0	0	1	100	1	500	0	0	0	0	0	0	0	62.5	625	1875	0	0	1	0	0	0.00532
88	0	0	0	0	1	100	1	330	165	0	0	0	0	0	0	6.6	66	198	0	0	2	8	8	0.14336
88	0	0	0	0	1	100	1	330	165	0	0	0	0	0	0	6.6	66	198	0	0	2	8	8	0.14336
88	0	0	0	0	1	100	1	330	165	0	0	0	0	0	0	6.6	66	198	0	0	2	8	8	0.14336
90	0	0	0	0	1	100	1	500	0	0	0	0	0	0	0	62.5	625	1875	0	0	1	0	0	0.00456
90	0	0	0	0	1	100	1	500	0	0	0	0	0	0	0	62.5	625	1875	0	0	1	0	0	0.00456
90	0	0	0	0	1	100	1	500	0	0	0	0	0	0	0	62.5	625	1875	0	0	1	0	0	0.00456
91	0	0	0	0	1	100	1	300	165	0	0	0	0	0	0	6	60	180	0	0	2	8	8	0.13576
91	0	0	0	0	1	100	1	300	165	0	0	0	0	0	0	6	60	180	0	0	2	8	8	0.13576
91	0	0	0	0	1	100	1	300	165	0	0	0	0	0	0	6	60	180	0	0	2	8	8	0.13576
91	0	0	0	0	1	100	1	300	165	0	0	0	0	0	0	6	60	180	0	0	2	8	8	0.13576
91	0	0	0	0	1	100	1	300	165	0	0	0	0	0	0	6	60	180	0	0	2	8	8	0.13576
91	0	0	0	0	1	100	1	300	165	0	0	0	0	0	0	6	60	180	0	0	2	8	8	0.13576
94	0	0	0	0	1	100	1	500	0	0	0	0	0	0	0	62.5	625	1875	0	0	1	0	0	0.00521
94	0	0	0	0	1	100	1	500	0	0	0	0	0	0	0	62.5	625	1875	0	0	1	0	0	0.00521
94	0	0	0	0	1	100	1	500	0	0	0	0	0	0	0	62.5	625	1875	0	0	1	0	0	0.00521
94	0	0	0	0	1	100	1	500	0	0	0	0	0	0	0	62.5	625	1875	0	0	1	0	0	0.00521
95	0	0	0	0	1	100	1	500	0	0	0	0	0	0	0	62.5	625	1875	0	0	1	0	0	0.00516
95	0	0	0	0	1	100	1	500	0	0	0	0	0	0	0	62.5	625	1875	0	0	1	0	0	0.00516
98	0	0	0	0	1	100	1	600	0	0	0	0	0	0	0	75	750	2250	0	0	1	0	0	0.00488
98	0	0	0	0	1	100	1	600	0	0	0	0	0	0	0	75	750	2250	0	0	1	0	0	0.00488
98	0	0	0	0	1	100	1	600	0	0	0	0	0	0	0	75	750	2250	0	0	1	0	0	0.00488
98	0	0	0	0	1	100	1	600	0	0	0	0	0	0	0	75	750	2250	0	0	1	0	0	0.00488
98	0	0	0	0	1	100	1	600	0	0	0	0	0	0	0	75	750	2250	0	0	1	0	0	0.00488
98	0	0	0	0	1	100	1	600	240	0	0	0	0	0	0	24	240	720	0	0	5	3	3	0.35979
98	0	0	0	0	1	100	1	600	240	0	0	0	0	0	0	24	240	720	0	0	5	3	3	0.35979
98	0	0	0	0	1	100	1	600	240	0	0	0	0	0	0	24	240	720	0	0	5	3	3	0.35979
99	0	0	0	0	1	100	1	500	0	0	0	0	0	0	0	62.5	625	1875	0	0	1	0	0	0.00518
99	0	0	0	0	1	100	1	500	0	0	0	0	0	0	0	62.5	625	1875	0	0	1	0	0	0.00518
99	0	0	0	0	1	100	1	500	0	0	0	0	0	0	0	62.5	625	1875	0	0	1	0	0	0.00518
99	0	0	0	0	1	100	1	500	0	0	0	0	0	0	0	62.5	625	1875	0	0	1	0	0	0.00518
108	0	0	0	0	1	100	1	500	0	0	0	0	0	0	0	62.5	625	1875	0	0	1	0	0	0.00458
108	0	0	0	0	1	100	1	500	0	0	0	0	0	0	0	62.5	625	1875	0	0	1	0	0	0.00458
108	0	0	0	0	1	100	1	500	0	0	0	0	0	0	0	62.5	625	1875	0	0	1	0	0	0.00458
108	0	0	0	0	1	100	1	500	0	0	0	0	0	0	0	62.5	625	1875	0	0	1	0	0	0.00458
108	0	0	0	0	1	100	1	500	0	0	0	0	0	0	0	62.5	625	1875	0	0	1	0	0	0.00458
108	0	0	0	0	1	100	1	500	0	0	0	0	0	0	0	62.5	625	1875	0	0	1	0	0	0.00458
111	0	0	0	0	1	100	1	600	0	0	0	0	0	0	0	75	750	2250	0	0	1	0	0	0.00489
111	0	0	0	0	1	100	1	600	0	0	0	0	0	0	0	75	750	2250	0	0	1	0	0	0.00489
126	0	0	0	0	1	100	1	600	300	0	0	0	0	0	0	12	120	360	0	0	2	10	10	0.25014
127	0	0	0	0	1	100	1	600	240	0	0	0	0	0	0	24	240	720	0	0	5	3	3	0.36172
129	0	0	0	0	1	100	1	500	0	0	0	0	0	0	0	62.5	625	1875	0	0	1	0	0	0.00472
129	0	0	0	0	1	100	1	500	0	0	0	0	0	0	0	62.5	625	1875	0	0	1	0	0	0.00472
129	0	0	0	0	1	100	1	500	0	0	0	0	0	0	0	62.5	625	1875	0	0	1	0	0	0.00472
129	0	0	0	0	1	100	1	500	0	0	0	0	0	0	0	62.5	625	1875	0	0	1	0	0	0.00472
129	0	0	0	0	1	100	1	500	0	0	0	0	0	0	0	62.5	625	1875	0	0	1	0	0	0.00472
129	0	0	0	0	1	100	1	350	175	0	0	0	0	0	0	7	70	210	0	0	2	8	8	0.14346
131	0	0	0	0	1	100	1	400	200	0	0	0	0	0	0	8	80	240	0	0	2	8	8	0.13511
135	0	0	0	0	1	100	1	600	0	0	0	0	0	0	0	75	750	2250	0	0	1	0	0	0.0051
135	0	0	0	0	1	100	1	600	0	0	0	0	0	0	0	75	750	2250	0	0	1	0	0	0.0051
135	0	0	0	0	1	100	1	600	0	0	0	0	0	0	0	75	750	2250	0	0	1	0	0	0.0051
138	0	0	0	0	1	100	1	1000	500	0	0	0	0	0	0	15	150	450	0	0	2	12	12	0.3187
138	0	0	0	0	1	100	1	1000	500	0	0	0	0	0	0	15	150	450	0	0	2	12	12	0.3187
139	0	0	0	0	1	100	1	1000	500	0	0	0	0	0	0	15	150	450	0	0	2	12	12	0.32038
140	0	0	0	0	1	100	1	1000	500	0	0	0	0	0	0	15	150	450	0	0	2	12	12	0.32389
140	0	0	0	0	1	100	1	1000	500	0	0	0	0	0	0	15	150	450	0	0	2	12	12	0.32389
141	0	0	0	0	1	100	1	1000	500	0	0	0	0	0	0	15	150	450	0	0	2	12	12	0.32123
141	0	0	0	0	1	100	1	1000	500	0	0	0	0	0	0	15	150	450	0	0	2	12	12	0.32123
144	0	0	0	0	1	100	1	600	240	0	0	0	0	0	0	24	240	720	0	0	5	3	3	0.38559
144	0	0	0	0	1	100	1	600	240	0	0	0	0	0	0	24	240	720	0	0	5	3	3	0.38559
144	0	0	0	0	1	100	1	600	240	0	0	0	0	0	0	24	240	720	0	0	5	3	3	0.38559
145	0	0	0	0	1	100	1	1000	500	0	0	0	0	0	0	15	150	450	0	0	2	12	12	0.32865
145	0	0	0	0	1	100	1	1000	500	0	0	0	0	0	0	15	150	450	0	0	2	12	12	0.32865
146	0	0	0	0	1	100	1	600	300	0	0	0	0	0	0	12	120	360	0	0	2	10	10	0.25272
146	0	0	0	0	1	100	1	600	300	0	0	0	0	0	0	12	120	360	0	0	2	10	10	0.25272
148	0	0	0	0	1	100	1	600	240	0	0	0	0	0	0	24	240	720	0	0	5	3	3	0.38672
148	0	0	0	0	1	100	1	600	240	0	0	0	0	0	0	24	240	720	0	0	5	3	3	0.38672
149	0	0	0	0	1	100	1	600	300	0	0	0	0	0	0	12	120	360	0	0	2	10	10	0.25915
149	0	0	0	0	1	100	1	600	300	0	0	0	0	0	0	12	120	360	0	0	2	10	10	0.25915
150	0	0	0	0	1	100	1	600	300	0	0	0	0	0	0	12	120	360	0	0	2	10	10	0.2516
150	0	0	0	0	1	100	1	600	300	0	0	0	0	0	0	12	120	360	0	0	2	10	10	0.2516
151	0	0	0	0	1	100	1	1000	500	0	0	0	0	0	0	15	150	450	0	0	2	12	12	0.33926
151	0	0	0	0	1	100	1	1000	500	0	0	0	0	0	0	15	150	450	0	0	2	12	12	0.33926
152	0	0	0	0	1	100	1	600	300	0	0	0	0	0	0	12	120	360	0	0	2	10	10	0.25368
152	0	0	0	0	1	100	1	600	300	0	0	0	0	0	0	12	120	360	0	0	2	10	10	0.25368
153	0	0	0	0	1	100	1	1000	500	0	0	0	0	0	0	15	150	450	0	0	2	12	12	0.3176
153	0	0	0	0	1	100	1	1000	500	0	0	0	0	0	0	15	150	450	0	0	2	12	12	0.3176
154	0	0	0	0	1	100	1	600	300	0	0	0	0	0	0	12	120	360	0	0	2	10	10	0.25598
154	0	0	0	0	1	100	1	600	300	0	0	0	0	0	0	12	120	360	0	0	2	10	10	0.25598
157	0	0	0	0	1	100	1	600	240	0	0	0	0	0	0	24	240	720	0	0	5	3	3	0.36895
157	0	0	0	0	1	100	1	600	240	0	0	0	0	0	0	24	240	720	0	0	5	3	3	0.36895
158	0	0	0	0	1	100	1	400	0	0	0	0	0	0	0	50	500	1500	0	0	1	0	0	0.0046
158	0	0	0	0	1	100	1	300	165	0	0	0	0	0	0	6	60	180	0	0	2	8	8	0.13591
158	0	0	0	0	1	100	1	300	165	0	0	0	0	0	0	6	60	180	0	0	2	8	8	0.13591
158	0	0	0	0	1	100	1	300	165	0	0	0	0	0	0	6	60	180	0	0	2	8	8	0.13591
158	0	0	0	0	1	100	1	300	165	0	0	0	0	0	0	6	60	180	0	0	2	8	8	0.13591
158	0	0	0	0	1	100	1	300	165	0	0	0	0	0	0	6	60	180	0	0	2	8	8	0.13591
160	0	0	0	0	1	100	1	600	300	0	0	0	0	0	0	12	120	360	0	0	2	10	10	0.26553
160	0	0	0	0	1	100	1	600	300	0	0	0	0	0	0	12	120	360	0	0	2	10	10	0.26553
160	0	0	0	0	1	100	1	600	300	0	0	0	0	0	0	12	120	360	0	0	2	10	10	0.26553
172	0	0	0	0	1	100	1	600	300	0	0	0	0	0	0	12	120	360	0	0	2	10	10	0.26226
172	0	0	0	0	1	100	1	600	300	0	0	0	0	0	0	12	120	360	0	0	2	10	10	0.26226
173	0	0	0	0	1	100	1	600	300	0	0	0	0	0	0	12	120	360	0	0	2	10	10	0.25914
173	0	0	0	0	1	100	1	600	300	0	0	0	0	0	0	12	120	360	0	0	2	10	10	0.25914
173	0	0	0	0	1	100	1	600	300	0	0	0	0	0	0	12	120	360	0	0	2	10	10	0.25914
173	0	0	0	0	1	100	1	600	300	0	0	0	0	0	0	12	120	360	0	0	2	10	10	0.25914
173	0	0	0	0	1	100	1	600	300	0	0	0	0	0	0	12	120	360	0	0	2	10	10	0.25914
173	0	0	0	0	1	100	1	600	300	0	0	0	0	0	0	12	120	360	0	0	2	10	10	0.25914
173	0	0	0	0	1	100	1	600	300	0	0	0	0	0	0	12	120	360	0	0	2	10	10	0.25914
174	0	0	0	0	1	100	1	600	240	0	0	0	0	0	0	24	240	720	0	0	5	3	3	0.37516
174	0	0	0	0	1	100	1	600	240	0	0	0	0	0	0	24	240	720	0	0	5	3	3	0.37516
175	0	0	0	0	1	100	1	600	300	0	0	0	0	0	0	12	120	360	0	0	2	10	10	0.25432
175	0	0	0	0	1	100	1	600	300	0	0	0	0	0	0	12	120	360	0	0	2	10	10	0.25432
175	0	0	0	0	1	100	1	600	300	0	0	0	0	0	0	12	120	360	0	0	2	10	10	0.25432
176	0	0	0	0	1	100	1	300	165	0	0	0	0	0	0	6	60	180	0	0	2	8	8	0.13952
176	0	0	0	0	1	100	1	300	165	0	0	0	0	0	0	6	60	180	0	0	2	8	8	0.13952
179	0	0	0	0	1	100	1	600	300	0	0	0	0	0	0	12	120	360	0	0	2	10	10	0.25963
179	0	0	0	0	1	100	1	600	300	0	0	0	0	0	0	12	120	360	0	0	2	10	10	0.25963
179	0	0	0	0	1	100	1	600	300	0	0	0	0	0	0	12	120	360	0	0	2	10	10	0.25963
180	0	0	0	0	1	100	1	600	240	0	0	0	0	0	0	24	240	720	0	0	5	3	3	0.37027
180	0	0	0	0	1	100	1	600	240	0	0	0	0	0	0	24	240	720	0	0	5	3	3	0.37027
181	0	0	0	0	1	100	1	600	300	0	0	0	0	0	0	12	120	360	0	0	2	10	10	0.2506
181	0	0	0	0	1	100	1	600	300	0	0	0	0	0	0	12	120	360	0	0	2	10	10	0.2506
182	0	0	0	0	1	100	1	330	165	0	0	0	0	0	0	6.6	66	198	0	0	2	8	8	0.13807
182	0	0	0	0	1	100	1	330	165	0	0	0	0	0	0	6.6	66	198	0	0	2	8	8	0.13807
182	0	0	0	0	1	100	1	330	165	0	0	0	0	0	0	6.6	66	198	0	0	2	8	8	0.13807
182	0	0	0	0	1	100	1	330	165	0	0	0	0	0	0	6.6	66	198	0	0	2	8	8	0.13807
182	0	0	0	0	1	100	1	330	165	0	0	0	0	0	0	6.6	66	198	0	0	2	8	8	0.13807
182	0	0	0	0	1	100	1	330	165	0	0	0	0	0	0	6.6	66	198	0	0	2	8	8	0.13807
182	0	0	0	0	1	100	1	330	165	0	0	0	0	0	0	6.6	66	198	0	0	2	8	8	0.13807
182	0	0	0	0	1	100	1	330	165	0	0	0	0	0	0	6.6	66	198	0	0	2	8	8	0.13807
182	0	0	0	0	1	100	1	330	165	0	0	0	0	0	0	6.6	66	198	0	0	2	8	8	0.13807
182	0	0	0	0	1	100	1	330	165	0	0	0	0	0	0	6.6	66	198	0	0	2	8	8	0.13807
183	0	0	0	0	1	100	1	600	300	0	0	0	0	0	0	12	120	360	0	0	2	10	10	0.26165
183	0	0	0	0	1	100	1	600	300	0	0	0	0	0	0	12	120	360	0	0	2	10	10	0.26165
183	0	0	0	0	1	100	1	600	300	0	0	0	0	0	0	12	120	360	0	0	2	10	10	0.26165
185	0	0	0	0	1	100	1	600	300	0	0	0	0	0	0	12	120	360	0	0	2	10	10	0.26659
185	0	0	0	0	1	100	1	600	300	0	0	0	0	0	0	12	120	360	0	0	2	10	10	0.26659
185	0	0	0	0	1	100	1	600	300	0	0	0	0	0	0	12	120	360	0	0	2	10	10	0.26659
186	0	0	0	0	1	100	1	600	300	0	0	0	0	0	0	12	120	360	0	0	2	10	10	0.25294
186	0	0	0	0	1	100	1	600	300	0	0	0	0	0	0	12	120	360	0	0	2	10	10	0.25294
186	0	0	0	0	1	100	1	600	300	0	0	0	0	0	0	12	120	360	0	0	2	10	10	0.25294
186	0	0	0	0	1	100	1	600	300	0	0	0	0	0	0	12	120	360	0	0	2	10	10	0.25294
187	0	0	0	0	1	100	1	600	300	0	0	0	0	0	0	12	120	360	0	0	2	10	10	0.26322
187	0	0	0	0	1	100	1	600	300	0	0	0	0	0	0	12	120	360	0	0	2	10	10	0.26322
187	0	0	0	0	1	100	1	600	300	0	0	0	0	0	0	12	120	360	0	0	2	10	10	0.26322
187	0	0	0	0	1	100	1	600	300	0	0	0	0	0	0	12	120	360	0	0	2	10	10	0.26322
188	0	0	0	0	1	100	1	600	300	0	0	0	0	0	0	12	120	360	0	0	2	10	10	0.26293
188	0	0	0	0	1	100	1	600	300	0	0	0	0	0	0	12	120	360	0	0	2	10	10	0.26293
188	0	0	0	0	1	100	1	600	300	0	0	0	0	0	0	12	120	360	0	0	2	10	10	0.26293
188	0	0	0	0	1	100	1	600	300	0	0	0	0	0	0	12	120	360	0	0	2	10	10	0.26293
189	0	0	0	0	1	100	1	600	240	0	0	0	0	0	0	24	240	720	0	0	5	3	3	0.37971
189	0	0	0	0	1	100	1	600	240	0	0	0	0	0	0	24	240	720	0	0	5	3	3	0.37971
189	0	0	0	0	1	100	1	600	240	0	0	0	0	0	0	24	240	720	0	0	5	3	3	0.37971
190	0	0	0	0	1	100	1	600	240	0	0	0	0	0	0	24	240	720	0	0	5	3	3	0.36473
190	0	0	0	0	1	100	1	600	240	0	0	0	0	0	0	24	240	720	0	0	5	3	3	0.36473
190	0	0	0	0	1	100	1	600	240	0	0	0	0	0	0	24	240	720	0	0	5	3	3	0.36473
194	0	0	0	0	1	100	1	600	240	0	0	0	0	0	0	24	240	720	0	0	5	3	3	0.38396
194	0	0	0	0	1	100	1	600	240	0	0	0	0	0	0	24	240	720	0	0	5	3	3	0.38396
194	0	0	0	0	1	100	1	600	240	0	0	0	0	0	0	24	240	720	0	0	5	3	3	0.38396
194	0	0	0	0	1	100	1	600	240	0	0	0	0	0	0	24	240	720	0	0	5	3	3	0.38396
194	0	0	0	0	1	100	1	600	240	0	0	0	0	0	0	24	240	720	0	0	5	3	3	0.38396
194	0	0	0	0	1	100	1	600	240	0	0	0	0	0	0	24	240	720	0	0	5	3	3	0.38396
194	0	0	0	0	1	100	1	600	240	0	0	0	0	0	0	24	240	720	0	0	5	3	3	0.38396
196	0	0	0	0	1	100	1	500	0	0	0	0	0	0	0	62.5	625	1875	0	0	1	0	0	0.00464
196	0	0	0	0	1	100	1	500	0	0	0	0	0	0	0	62.5	625	1875	0	0	1	0	0	0.00464
196	0	0	0	0	1	100	1	500	0	0	0	0	0	0	0	62.5	625	1875	0	0	1	0	0	0.00464
196	0	0	0	0	1	100	1	500	0	0	0	0	0	0	0	62.5	625	1875	0	0	1	0	0	0.00464
196	0	0	0	0	1	100	1	300	165	0	0	0	0	0	0	6	60	180	0	0	2	8	8	0.14592
196	0	0	0	0	1	100	1	300	165	0	0	0	0	0	0	6	60	180	0	0	2	8	8	0.14592
196	0	0	0	0	1	100	1	300	165	0	0	0	0	0	0	6	60	180	0	0	2	8	8	0.14592
196	0	0	0	0	1	100	1	300	165	0	0	0	0	0	0	6	60	180	0	0	2	8	8	0.14592
196	0	0	0	0	1	100	1	300	165	0	0	0	0	0	0	6	60	180	0	0	2	8	8	0.14592
196	0	0	0	0	1	100	1	300	165	0	0	0	0	0	0	6	60	180	0	0	2	8	8	0.14592
196	0	0	0	0	1	100	1	300	165	0	0	0	0	0	0	6	60	180	0	0	2	8	8	0.14592
196	0	0	0	0	1	100	1	300	165	0	0	0	0	0	0	6	60	180	0	0	2	8	8	0.14592
197	0	0	0	0	1	100	1	300	165	0	0	0	0	0	0	6	60	180	0	0	2	8	8	0.14339
197	0	0	0	0	1	100	1	300	165	0	0	0	0	0	0	6	60	180	0	0	2	8	8	0.14339
197	0	0	0	0	1	100	1	300	165	0	0	0	0	0	0	6	60	180	0	0	2	8	8	0.14339
197	0	0	0	0	1	100	1	300	165	0	0	0	0	0	0	6	60	180	0	0	2	8	8	0.14339
197	0	0	0	0	1	100	1	300	165	0	0	0	0	0	0	6	60	180	0	0	2	8	8	0.14339
197	0	0	0	0	1	100	1	300	165	0	0	0	0	0	0	6	60	180	0	0	2	8	8	0.14339
197	0	0	0	0	1	100	1	300	165	0	0	0	0	0	0	6	60	180	0	0	2	8	8	0.14339